MODEL 1
REMARK VINA RESULT:      -7.0      0.000      0.000
REMARK  2 active torsions:
REMARK  status: ('A' for Active; 'I' for Inactive)
REMARK    1  A    between atoms: O_2  and  C_9 
REMARK    2  A    between atoms: O_3  and  C_10 
ROOT
HETATM    1  O   UNK     0      -4.666  32.564  -8.389  0.00  0.00    -0.275 OA
HETATM    2  O   UNK     0      -4.184  31.734  -6.310  0.00  0.00    -0.260 OA
HETATM    3  C   UNK     0      -5.896  34.655  -8.572  0.00  0.00     0.001 A 
HETATM    4  C   UNK     0      -5.258  33.575  -9.173  0.00  0.00     0.092 A 
HETATM    5  C   UNK     0      -6.471  35.637  -9.383  0.00  0.00     0.053 A 
HETATM    6  C   UNK     0      -5.179  33.448 -10.559  0.00  0.00     0.077 A 
HETATM    7  C   UNK     0      -6.399  35.524 -10.774  0.00  0.00     0.099 A 
HETATM    8  C   UNK     0      -5.755  34.432 -11.360  0.00  0.00     0.101 A 
HETATM    9  C   UNK     0      -5.942  34.724  -7.121  0.00  0.00     0.020 A 
HETATM   10  C   UNK     0      -5.380  33.762  -6.385  0.00  0.00     0.083 A 
HETATM   11  C   UNK     0      -4.697  32.607  -6.999  0.00  0.00     0.288 A 
ENDROOT
BRANCH   7  12
HETATM   12  O   UNK     0      -6.964  36.490 -11.553  0.00  0.00    -0.358 OA
HETATM   13  H   UNK     0      -7.294  37.204 -10.982  0.00  0.00     0.217 HD
ENDBRANCH   7  12
BRANCH   8  14
HETATM   14  O   UNK     0      -5.682  34.318 -12.716  0.00  0.00    -0.358 OA
HETATM   15  H   UNK     0      -4.772  34.523 -12.992  0.00  0.00     0.217 HD
ENDBRANCH   8  14
TORSDOF 2
ENDMDL
MODEL 2
REMARK VINA RESULT:      -6.9      3.075      4.530
REMARK  2 active torsions:
REMARK  status: ('A' for Active; 'I' for Inactive)
REMARK    1  A    between atoms: O_2  and  C_9 
REMARK    2  A    between atoms: O_3  and  C_10 
ROOT
HETATM    1  O   UNK     0      -4.096  31.275  -6.426  0.00  0.00    -0.275 OA
HETATM    2  O   UNK     0      -3.310  30.752  -4.339  0.00  0.00    -0.260 OA
HETATM    3  C   UNK     0      -5.093  29.522  -7.788  0.00  0.00     0.001 A 
HETATM    4  C   UNK     0      -4.713  30.851  -7.620  0.00  0.00     0.092 A 
HETATM    5  C   UNK     0      -5.702  29.141  -8.986  0.00  0.00     0.053 A 
HETATM    6  C   UNK     0      -4.925  31.806  -8.613  0.00  0.00     0.077 A 
HETATM    7  C   UNK     0      -5.921  30.088  -9.991  0.00  0.00     0.099 A 
HETATM    8  C   UNK     0      -5.533  31.417  -9.805  0.00  0.00     0.101 A 
HETATM    9  C   UNK     0      -4.841  28.580  -6.711  0.00  0.00     0.020 A 
HETATM   10  C   UNK     0      -4.255  28.989  -5.584  0.00  0.00     0.083 A 
HETATM   11  C   UNK     0      -3.845  30.391  -5.381  0.00  0.00     0.288 A 
ENDROOT
BRANCH   7  12
HETATM   12  O   UNK     0      -6.517  29.700 -11.154  0.00  0.00    -0.358 OA
HETATM   13  H   UNK     0      -6.907  28.819 -11.032  0.00  0.00     0.217 HD
ENDBRANCH   7  12
BRANCH   8  14
HETATM   14  O   UNK     0      -5.745  32.342 -10.782  0.00  0.00    -0.358 OA
HETATM   15  H   UNK     0      -6.655  32.235 -11.112  0.00  0.00     0.217 HD
ENDBRANCH   8  14
TORSDOF 2
ENDMDL
MODEL 3
REMARK VINA RESULT:      -6.8      3.166      4.277
REMARK  2 active torsions:
REMARK  status: ('A' for Active; 'I' for Inactive)
REMARK    1  A    between atoms: O_2  and  C_9 
REMARK    2  A    between atoms: O_3  and  C_10 
ROOT
HETATM    1  O   UNK     0      -4.762  28.596  -6.755  0.00  0.00    -0.275 OA
HETATM    2  O   UNK     0      -3.965  28.090  -4.669  0.00  0.00    -0.260 OA
HETATM    3  C   UNK     0      -4.722  30.910  -7.508  0.00  0.00     0.001 A 
HETATM    4  C   UNK     0      -5.024  29.571  -7.739  0.00  0.00     0.092 A 
HETATM    5  C   UNK     0      -4.997  31.847  -8.507  0.00  0.00     0.053 A 
HETATM    6  C   UNK     0      -5.592  29.144  -8.938  0.00  0.00     0.077 A 
HETATM    7  C   UNK     0      -5.566  31.434  -9.715  0.00  0.00     0.099 A 
HETATM    8  C   UNK     0      -5.863  30.085  -9.929  0.00  0.00     0.101 A 
HETATM    9  C   UNK     0      -4.131  31.286  -6.234  0.00  0.00     0.020 A 
HETATM   10  C   UNK     0      -3.887  30.356  -5.307  0.00  0.00     0.083 A 
HETATM   11  C   UNK     0      -4.197  28.931  -5.529  0.00  0.00     0.288 A 
ENDROOT
BRANCH   7  12
HETATM   12  O   UNK     0      -5.828  32.359 -10.681  0.00  0.00    -0.358 OA
HETATM   13  H   UNK     0      -5.930  31.905 -11.534  0.00  0.00     0.217 HD
ENDBRANCH   7  12
BRANCH   8  14
HETATM   14  O   UNK     0      -6.418  29.678 -11.105  0.00  0.00    -0.358 OA
HETATM   15  H   UNK     0      -5.954  30.127 -11.834  0.00  0.00     0.217 HD
ENDBRANCH   8  14
TORSDOF 2
ENDMDL
MODEL 4
REMARK VINA RESULT:      -6.6      2.988      4.152
REMARK  2 active torsions:
REMARK  status: ('A' for Active; 'I' for Inactive)
REMARK    1  A    between atoms: O_2  and  C_9 
REMARK    2  A    between atoms: O_3  and  C_10 
ROOT
HETATM    1  O   UNK     0      -4.877  29.936  -7.137  0.00  0.00    -0.275 OA
HETATM    2  O   UNK     0      -4.967  27.869  -6.154  0.00  0.00    -0.260 OA
HETATM    3  C   UNK     0      -5.583  30.175  -9.454  0.00  0.00     0.001 A 
HETATM    4  C   UNK     0      -5.090  30.735  -8.278  0.00  0.00     0.092 A 
HETATM    5  C   UNK     0      -5.780  31.000 -10.564  0.00  0.00     0.053 A 
HETATM    6  C   UNK     0      -4.791  32.092  -8.182  0.00  0.00     0.077 A 
HETATM    7  C   UNK     0      -5.485  32.364 -10.482  0.00  0.00     0.099 A 
HETATM    8  C   UNK     0      -4.991  32.908  -9.294  0.00  0.00     0.101 A 
HETATM    9  C   UNK     0      -5.873  28.751  -9.484  0.00  0.00     0.020 A 
HETATM   10  C   UNK     0      -5.668  28.001  -8.399  0.00  0.00     0.083 A 
HETATM   11  C   UNK     0      -5.148  28.571  -7.142  0.00  0.00     0.288 A 
ENDROOT
BRANCH   7  12
HETATM   12  O   UNK     0      -5.684  33.156 -11.573  0.00  0.00    -0.358 OA
HETATM   13  H   UNK     0      -6.329  32.729 -12.161  0.00  0.00     0.217 HD
ENDBRANCH   7  12
BRANCH   8  14
HETATM   14  O   UNK     0      -4.702  34.237  -9.210  0.00  0.00    -0.358 OA
HETATM   15  H   UNK     0      -5.458  34.737  -9.565  0.00  0.00     0.217 HD
ENDBRANCH   8  14
TORSDOF 2
ENDMDL
MODEL 5
REMARK VINA RESULT:      -6.5      4.041      6.881
REMARK  2 active torsions:
REMARK  status: ('A' for Active; 'I' for Inactive)
REMARK    1  A    between atoms: O_2  and  C_9 
REMARK    2  A    between atoms: O_3  and  C_10 
ROOT
HETATM    1  O   UNK     0      -4.647  31.220  -8.319  0.00  0.00    -0.275 OA
HETATM    2  O   UNK     0      -5.588  33.006  -9.400  0.00  0.00    -0.260 OA
HETATM    3  C   UNK     0      -5.118  28.970  -9.119  0.00  0.00     0.001 A 
HETATM    4  C   UNK     0      -4.483  29.823  -8.220  0.00  0.00     0.092 A 
HETATM    5  C   UNK     0      -4.931  27.592  -8.989  0.00  0.00     0.053 A 
HETATM    6  C   UNK     0      -3.669  29.338  -7.199  0.00  0.00     0.077 A 
HETATM    7  C   UNK     0      -4.117  27.090  -7.969  0.00  0.00     0.099 A 
HETATM    8  C   UNK     0      -3.488  27.962  -7.077  0.00  0.00     0.101 A 
HETATM    9  C   UNK     0      -5.953  29.545 -10.160  0.00  0.00     0.020 A 
HETATM   10  C   UNK     0      -6.104  30.869 -10.246  0.00  0.00     0.083 A 
HETATM   11  C   UNK     0      -5.441  31.793  -9.307  0.00  0.00     0.288 A 
ENDROOT
BRANCH   7  12
HETATM   12  O   UNK     0      -3.943  25.743  -7.855  0.00  0.00    -0.358 OA
HETATM   13  H   UNK     0      -4.812  25.308  -7.886  0.00  0.00     0.217 HD
ENDBRANCH   7  12
BRANCH   8  14
HETATM   14  O   UNK     0      -2.694  27.477  -6.081  0.00  0.00    -0.358 OA
HETATM   15  H   UNK     0      -3.110  27.688  -5.227  0.00  0.00     0.217 HD
ENDBRANCH   8  14
TORSDOF 2
ENDMDL
MODEL 6
REMARK VINA RESULT:      -6.3      1.985      3.787
REMARK  2 active torsions:
REMARK  status: ('A' for Active; 'I' for Inactive)
REMARK    1  A    between atoms: O_2  and  C_9 
REMARK    2  A    between atoms: O_3  and  C_10 
ROOT
HETATM    1  O   UNK     0      -7.484  37.174  -9.108  0.00  0.00    -0.275 OA
HETATM    2  O   UNK     0      -8.373  38.483  -7.452  0.00  0.00    -0.260 OA
HETATM    3  C   UNK     0      -6.592  34.984  -8.533  0.00  0.00     0.001 A 
HETATM    4  C   UNK     0      -6.868  35.963  -9.483  0.00  0.00     0.092 A 
HETATM    5  C   UNK     0      -5.981  33.797  -8.945  0.00  0.00     0.053 A 
HETATM    6  C   UNK     0      -6.550  35.790 -10.829  0.00  0.00     0.077 A 
HETATM    7  C   UNK     0      -5.656  33.609 -10.291  0.00  0.00     0.099 A 
HETATM    8  C   UNK     0      -5.940  34.603 -11.231  0.00  0.00     0.101 A 
HETATM    9  C   UNK     0      -6.951  35.231  -7.147  0.00  0.00     0.020 A 
HETATM   10  C   UNK     0      -7.533  36.381  -6.799  0.00  0.00     0.083 A 
HETATM   11  C   UNK     0      -7.836  37.434  -7.787  0.00  0.00     0.288 A 
ENDROOT
BRANCH   7  12
HETATM   12  O   UNK     0      -5.061  32.445 -10.678  0.00  0.00    -0.358 OA
HETATM   13  H   UNK     0      -4.096  32.552 -10.630  0.00  0.00     0.217 HD
ENDBRANCH   7  12
BRANCH   8  14
HETATM   14  O   UNK     0      -5.625  34.423 -12.544  0.00  0.00    -0.358 OA
HETATM   15  H   UNK     0      -4.722  34.755 -12.690  0.00  0.00     0.217 HD
ENDBRANCH   8  14
TORSDOF 2
ENDMDL
MODEL 7
REMARK VINA RESULT:      -6.2      2.558      4.282
REMARK  2 active torsions:
REMARK  status: ('A' for Active; 'I' for Inactive)
REMARK    1  A    between atoms: O_2  and  C_9 
REMARK    2  A    between atoms: O_3  and  C_10 
ROOT
HETATM    1  O   UNK     0      -5.603  33.905  -8.828  0.00  0.00    -0.275 OA
HETATM    2  O   UNK     0      -5.344  35.895  -7.724  0.00  0.00    -0.260 OA
HETATM    3  C   UNK     0      -4.981  31.839  -7.703  0.00  0.00     0.001 A 
HETATM    4  C   UNK     0      -5.478  32.501  -8.822  0.00  0.00     0.092 A 
HETATM    5  C   UNK     0      -4.872  30.446  -7.735  0.00  0.00     0.053 A 
HETATM    6  C   UNK     0      -5.869  31.813  -9.968  0.00  0.00     0.077 A 
HETATM    7  C   UNK     0      -5.260  29.742  -8.879  0.00  0.00     0.099 A 
HETATM    8  C   UNK     0      -5.757  30.424  -9.992  0.00  0.00     0.101 A 
HETATM    9  C   UNK     0      -4.592  32.620  -6.541  0.00  0.00     0.020 A 
HETATM   10  C   UNK     0      -4.713  33.950  -6.555  0.00  0.00     0.083 A 
HETATM   11  C   UNK     0      -5.238  34.675  -7.727  0.00  0.00     0.288 A 
ENDROOT
BRANCH   7  12
HETATM   12  O   UNK     0      -5.149  28.384  -8.895  0.00  0.00    -0.358 OA
HETATM   13  H   UNK     0      -5.207  28.072  -9.814  0.00  0.00     0.217 HD
ENDBRANCH   7  12
BRANCH   8  14
HETATM   14  O   UNK     0      -6.136  29.741 -11.108  0.00  0.00    -0.358 OA
HETATM   15  H   UNK     0      -5.661  28.891 -11.123  0.00  0.00     0.217 HD
ENDBRANCH   8  14
TORSDOF 2
ENDMDL
MODEL 8
REMARK VINA RESULT:      -6.1      3.299      4.425
REMARK  2 active torsions:
REMARK  status: ('A' for Active; 'I' for Inactive)
REMARK    1  A    between atoms: O_2  and  C_9 
REMARK    2  A    between atoms: O_3  and  C_10 
ROOT
HETATM    1  O   UNK     0      -4.032  31.014  -5.980  0.00  0.00    -0.275 OA
HETATM    2  O   UNK     0      -3.437  32.583  -4.422  0.00  0.00    -0.260 OA
HETATM    3  C   UNK     0      -5.113  31.740  -8.036  0.00  0.00     0.001 A 
HETATM    4  C   UNK     0      -4.612  30.721  -7.231  0.00  0.00     0.092 A 
HETATM    5  C   UNK     0      -5.680  31.409  -9.270  0.00  0.00     0.053 A 
HETATM    6  C   UNK     0      -4.661  29.385  -7.624  0.00  0.00     0.077 A 
HETATM    7  C   UNK     0      -5.736  30.073  -9.677  0.00  0.00     0.099 A 
HETATM    8  C   UNK     0      -5.228  29.063  -8.855  0.00  0.00     0.101 A 
HETATM    9  C   UNK     0      -5.029  33.112  -7.565  0.00  0.00     0.020 A 
HETATM   10  C   UNK     0      -4.479  33.381  -6.378  0.00  0.00     0.083 A 
HETATM   11  C   UNK     0      -3.940  32.319  -5.507  0.00  0.00     0.288 A 
ENDROOT
BRANCH   7  12
HETATM   12  O   UNK     0      -6.292  29.766 -10.883  0.00  0.00    -0.358 OA
HETATM   13  H   UNK     0      -6.671  30.572 -11.272  0.00  0.00     0.217 HD
ENDBRANCH   7  12
BRANCH   8  14
HETATM   14  O   UNK     0      -5.282  27.760  -9.249  0.00  0.00    -0.358 OA
HETATM   15  H   UNK     0      -4.896  27.694 -10.140  0.00  0.00     0.217 HD
ENDBRANCH   8  14
TORSDOF 2
ENDMDL
MODEL 9
REMARK VINA RESULT:      -6.0      1.658      4.405
REMARK  2 active torsions:
REMARK  status: ('A' for Active; 'I' for Inactive)
REMARK    1  A    between atoms: O_2  and  C_9 
REMARK    2  A    between atoms: O_3  and  C_10 
ROOT
HETATM    1  O   UNK     0      -7.195  36.137  -9.539  0.00  0.00    -0.275 OA
HETATM    2  O   UNK     0      -8.607  37.940  -9.497  0.00  0.00    -0.260 OA
HETATM    3  C   UNK     0      -6.585  35.064  -7.442  0.00  0.00     0.001 A 
HETATM    4  C   UNK     0      -6.495  35.141  -8.829  0.00  0.00     0.092 A 
HETATM    5  C   UNK     0      -5.876  34.062  -6.774  0.00  0.00     0.053 A 
HETATM    6  C   UNK     0      -5.719  34.247  -9.564  0.00  0.00     0.077 A 
HETATM    7  C   UNK     0      -5.093  33.158  -7.498  0.00  0.00     0.099 A 
HETATM    8  C   UNK     0      -5.016  33.251  -8.890  0.00  0.00     0.101 A 
HETATM    9  C   UNK     0      -7.413  36.029  -6.738  0.00  0.00     0.020 A 
HETATM   10  C   UNK     0      -8.072  36.970  -7.418  0.00  0.00     0.083 A 
HETATM   11  C   UNK     0      -7.994  37.072  -8.888  0.00  0.00     0.288 A 
ENDROOT
BRANCH   7  12
HETATM   12  O   UNK     0      -4.408  32.186  -6.833  0.00  0.00    -0.358 OA
HETATM   13  H   UNK     0      -3.600  31.973  -7.328  0.00  0.00     0.217 HD
ENDBRANCH   7  12
BRANCH   8  14
HETATM   14  O   UNK     0      -4.254  32.372  -9.599  0.00  0.00    -0.358 OA
HETATM   15  H   UNK     0      -3.416  32.239  -9.122  0.00  0.00     0.217 HD
ENDBRANCH   8  14
TORSDOF 2
ENDMDL
