MODEL 1
REMARK VINA RESULT:      -6.1      0.000      0.000
REMARK  2 active torsions:
REMARK  status: ('A' for Active; 'I' for Inactive)
REMARK    1  A    between atoms: O_2  and  C_9 
REMARK    2  A    between atoms: O_3  and  C_10 
ROOT
HETATM    1  O   UNK     0      60.234  56.972   3.681  0.00  0.00    -0.275 OA
HETATM    2  O   UNK     0      61.795  56.140   5.136  0.00  0.00    -0.260 OA
HETATM    3  C   UNK     0      59.141  55.454   2.125  0.00  0.00     0.001 A 
HETATM    4  C   UNK     0      59.315  56.736   2.639  0.00  0.00     0.092 A 
HETATM    5  C   UNK     0      58.220  55.260   1.092  0.00  0.00     0.053 A 
HETATM    6  C   UNK     0      58.597  57.826   2.151  0.00  0.00     0.077 A 
HETATM    7  C   UNK     0      57.492  56.344   0.593  0.00  0.00     0.099 A 
HETATM    8  C   UNK     0      57.681  57.624   1.121  0.00  0.00     0.101 A 
HETATM    9  C   UNK     0      59.923  54.363   2.682  0.00  0.00     0.020 A 
HETATM   10  C   UNK     0      60.792  54.595   3.668  0.00  0.00     0.083 A 
HETATM   11  C   UNK     0      60.995  55.944   4.230  0.00  0.00     0.288 A 
ENDROOT
BRANCH   7  12
HETATM   12  O   UNK     0      56.597  56.140  -0.414  0.00  0.00    -0.358 OA
HETATM   13  H   UNK     0      57.004  55.572  -1.090  0.00  0.00     0.217 HD
ENDBRANCH   7  12
BRANCH   8  14
HETATM   14  O   UNK     0      56.973  58.683   0.637  0.00  0.00    -0.358 OA
HETATM   15  H   UNK     0      57.576  59.239   0.113  0.00  0.00     0.217 HD
ENDBRANCH   8  14
TORSDOF 2
ENDMDL
MODEL 2
REMARK VINA RESULT:      -6.1      1.661      3.014
REMARK  2 active torsions:
REMARK  status: ('A' for Active; 'I' for Inactive)
REMARK    1  A    between atoms: O_2  and  C_9 
REMARK    2  A    between atoms: O_3  and  C_10 
ROOT
HETATM    1  O   UNK     0      60.338  57.500   3.566  0.00  0.00    -0.275 OA
HETATM    2  O   UNK     0      61.697  58.943   4.714  0.00  0.00    -0.260 OA
HETATM    3  C   UNK     0      58.778  58.397   1.927  0.00  0.00     0.001 A 
HETATM    4  C   UNK     0      59.328  57.310   2.601  0.00  0.00     0.092 A 
HETATM    5  C   UNK     0      57.779  58.167   0.978  0.00  0.00     0.053 A 
HETATM    6  C   UNK     0      58.908  56.005   2.355  0.00  0.00     0.077 A 
HETATM    7  C   UNK     0      57.347  56.863   0.719  0.00  0.00     0.099 A 
HETATM    8  C   UNK     0      57.911  55.784   1.406  0.00  0.00     0.101 A 
HETATM    9  C   UNK     0      59.264  59.731   2.234  0.00  0.00     0.020 A 
HETATM   10  C   UNK     0      60.220  59.904   3.150  0.00  0.00     0.083 A 
HETATM   11  C   UNK     0      60.819  58.768   3.878  0.00  0.00     0.288 A 
ENDROOT
BRANCH   7  12
HETATM   12  O   UNK     0      56.373  56.655  -0.210  0.00  0.00    -0.358 OA
HETATM   13  H   UNK     0      56.772  56.665  -1.096  0.00  0.00     0.217 HD
ENDBRANCH   7  12
BRANCH   8  14
HETATM   14  O   UNK     0      57.492  54.512   1.157  0.00  0.00    -0.358 OA
HETATM   15  H   UNK     0      57.285  54.086   2.007  0.00  0.00     0.217 HD
ENDBRANCH   8  14
TORSDOF 2
ENDMDL
MODEL 3
REMARK VINA RESULT:      -6.0      1.063      2.242
REMARK  2 active torsions:
REMARK  status: ('A' for Active; 'I' for Inactive)
REMARK    1  A    between atoms: O_2  and  C_9 
REMARK    2  A    between atoms: O_3  and  C_10 
ROOT
HETATM    1  O   UNK     0      59.944  54.653   2.885  0.00  0.00    -0.275 OA
HETATM    2  O   UNK     0      61.494  53.946   4.416  0.00  0.00    -0.260 OA
HETATM    3  C   UNK     0      59.330  57.007   2.826  0.00  0.00     0.001 A 
HETATM    4  C   UNK     0      59.195  55.712   2.334  0.00  0.00     0.092 A 
HETATM    5  C   UNK     0      58.569  58.029   2.253  0.00  0.00     0.053 A 
HETATM    6  C   UNK     0      58.324  55.411   1.289  0.00  0.00     0.077 A 
HETATM    7  C   UNK     0      57.691  57.743   1.204  0.00  0.00     0.099 A 
HETATM    8  C   UNK     0      57.569  56.437   0.723  0.00  0.00     0.101 A 
HETATM    9  C   UNK     0      60.257  57.249   3.918  0.00  0.00     0.020 A 
HETATM   10  C   UNK     0      60.963  56.240   4.436  0.00  0.00     0.083 A 
HETATM   11  C   UNK     0      60.838  54.860   3.931  0.00  0.00     0.288 A 
ENDROOT
BRANCH   7  12
HETATM   12  O   UNK     0      56.957  58.751   0.654  0.00  0.00    -0.358 OA
HETATM   13  H   UNK     0      57.074  58.739  -0.311  0.00  0.00     0.217 HD
ENDBRANCH   7  12
BRANCH   8  14
HETATM   14  O   UNK     0      56.714  56.154  -0.299  0.00  0.00    -0.358 OA
HETATM   15  H   UNK     0      57.075  55.402  -0.800  0.00  0.00     0.217 HD
ENDBRANCH   8  14
TORSDOF 2
ENDMDL
MODEL 4
REMARK VINA RESULT:      -5.8      2.076      2.882
REMARK  2 active torsions:
REMARK  status: ('A' for Active; 'I' for Inactive)
REMARK    1  A    between atoms: O_2  and  C_9 
REMARK    2  A    between atoms: O_3  and  C_10 
ROOT
HETATM    1  O   UNK     0      58.817  59.169   2.040  0.00  0.00    -0.275 OA
HETATM    2  O   UNK     0      59.954  60.713   3.293  0.00  0.00    -0.260 OA
HETATM    3  C   UNK     0      59.091  56.804   2.544  0.00  0.00     0.001 A 
HETATM    4  C   UNK     0      58.517  57.817   1.780  0.00  0.00     0.092 A 
HETATM    5  C   UNK     0      58.769  55.475   2.255  0.00  0.00     0.053 A 
HETATM    6  C   UNK     0      57.633  57.539   0.739  0.00  0.00     0.077 A 
HETATM    7  C   UNK     0      57.884  55.182   1.214  0.00  0.00     0.099 A 
HETATM    8  C   UNK     0      57.317  56.211   0.458  0.00  0.00     0.101 A 
HETATM    9  C   UNK     0      60.005  57.166   3.615  0.00  0.00     0.020 A 
HETATM   10  C   UNK     0      60.284  58.449   3.854  0.00  0.00     0.083 A 
HETATM   11  C   UNK     0      59.689  59.540   3.060  0.00  0.00     0.288 A 
ENDROOT
BRANCH   7  12
HETATM   12  O   UNK     0      57.578  53.881   0.945  0.00  0.00    -0.358 OA
HETATM   13  H   UNK     0      57.802  53.688   0.019  0.00  0.00     0.217 HD
ENDBRANCH   7  12
BRANCH   8  14
HETATM   14  O   UNK     0      56.454  55.929  -0.557  0.00  0.00    -0.358 OA
HETATM   15  H   UNK     0      56.931  56.026  -1.400  0.00  0.00     0.217 HD
ENDBRANCH   8  14
TORSDOF 2
ENDMDL
MODEL 5
REMARK VINA RESULT:      -5.8      2.089      3.442
REMARK  2 active torsions:
REMARK  status: ('A' for Active; 'I' for Inactive)
REMARK    1  A    between atoms: O_2  and  C_9 
REMARK    2  A    between atoms: O_3  and  C_10 
ROOT
HETATM    1  O   UNK     0      58.578  55.512   1.003  0.00  0.00    -0.275 OA
HETATM    2  O   UNK     0      58.771  53.235   0.853  0.00  0.00    -0.260 OA
HETATM    3  C   UNK     0      59.616  56.666   2.878  0.00  0.00     0.001 A 
HETATM    4  C   UNK     0      58.870  56.700   1.703  0.00  0.00     0.092 A 
HETATM    5  C   UNK     0      59.884  57.865   3.543  0.00  0.00     0.053 A 
HETATM    6  C   UNK     0      58.388  57.896   1.175  0.00  0.00     0.077 A 
HETATM    7  C   UNK     0      59.407  59.072   3.026  0.00  0.00     0.099 A 
HETATM    8  C   UNK     0      58.660  59.088   1.845  0.00  0.00     0.101 A 
HETATM    9  C   UNK     0      60.087  55.383   3.372  0.00  0.00     0.020 A 
HETATM   10  C   UNK     0      59.806  54.261   2.703  0.00  0.00     0.083 A 
HETATM   11  C   UNK     0      59.019  54.272   1.456  0.00  0.00     0.288 A 
ENDROOT
BRANCH   7  12
HETATM   12  O   UNK     0      59.677  60.234   3.685  0.00  0.00    -0.358 OA
HETATM   13  H   UNK     0      59.115  60.941   3.326  0.00  0.00     0.217 HD
ENDBRANCH   7  12
BRANCH   8  14
HETATM   14  O   UNK     0      58.193  60.263   1.338  0.00  0.00    -0.358 OA
HETATM   15  H   UNK     0      57.347  60.469   1.773  0.00  0.00     0.217 HD
ENDBRANCH   8  14
TORSDOF 2
ENDMDL
MODEL 6
REMARK VINA RESULT:      -5.8      3.567      5.898
REMARK  2 active torsions:
REMARK  status: ('A' for Active; 'I' for Inactive)
REMARK    1  A    between atoms: O_2  and  C_9 
REMARK    2  A    between atoms: O_3  and  C_10 
ROOT
HETATM    1  O   UNK     0      61.356  52.713   2.908  0.00  0.00    -0.275 OA
HETATM    2  O   UNK     0      59.445  51.728   2.120  0.00  0.00    -0.260 OA
HETATM    3  C   UNK     0      61.275  55.031   3.647  0.00  0.00     0.001 A 
HETATM    4  C   UNK     0      61.991  53.856   3.437  0.00  0.00     0.092 A 
HETATM    5  C   UNK     0      61.939  56.142   4.173  0.00  0.00     0.053 A 
HETATM    6  C   UNK     0      63.348  53.760   3.737  0.00  0.00     0.077 A 
HETATM    7  C   UNK     0      63.301  56.061   4.479  0.00  0.00     0.099 A 
HETATM    8  C   UNK     0      64.003  54.873   4.261  0.00  0.00     0.101 A 
HETATM    9  C   UNK     0      59.861  55.060   3.311  0.00  0.00     0.020 A 
HETATM   10  C   UNK     0      59.268  53.974   2.810  0.00  0.00     0.083 A 
HETATM   11  C   UNK     0      60.004  52.717   2.579  0.00  0.00     0.288 A 
ENDROOT
BRANCH   7  12
HETATM   12  O   UNK     0      63.935  57.153   4.992  0.00  0.00    -0.358 OA
HETATM   13  H   UNK     0      63.485  57.956   4.680  0.00  0.00     0.217 HD
ENDBRANCH   7  12
BRANCH   8  14
HETATM   14  O   UNK     0      65.330  54.791   4.559  0.00  0.00    -0.358 OA
HETATM   15  H   UNK     0      65.635  53.891   4.349  0.00  0.00     0.217 HD
ENDBRANCH   8  14
TORSDOF 2
ENDMDL
MODEL 7
REMARK VINA RESULT:      -5.8      2.103      3.278
REMARK  2 active torsions:
REMARK  status: ('A' for Active; 'I' for Inactive)
REMARK    1  A    between atoms: O_2  and  C_9 
REMARK    2  A    between atoms: O_3  and  C_10 
ROOT
HETATM    1  O   UNK     0      59.472  55.191   3.103  0.00  0.00    -0.275 OA
HETATM    2  O   UNK     0      59.058  52.947   2.911  0.00  0.00    -0.260 OA
HETATM    3  C   UNK     0      58.277  56.742   1.658  0.00  0.00     0.001 A 
HETATM    4  C   UNK     0      59.203  56.506   2.671  0.00  0.00     0.092 A 
HETATM    5  C   UNK     0      58.037  58.059   1.257  0.00  0.00     0.053 A 
HETATM    6  C   UNK     0      59.893  57.545   3.292  0.00  0.00     0.077 A 
HETATM    7  C   UNK     0      58.722  59.112   1.871  0.00  0.00     0.099 A 
HETATM    8  C   UNK     0      59.647  58.855   2.886  0.00  0.00     0.101 A 
HETATM    9  C   UNK     0      57.594  55.611   1.055  0.00  0.00     0.020 A 
HETATM   10  C   UNK     0      57.855  54.369   1.469  0.00  0.00     0.083 A 
HETATM   11  C   UNK     0      58.831  54.092   2.541  0.00  0.00     0.288 A 
ENDROOT
BRANCH   7  12
HETATM   12  O   UNK     0      58.476  60.391   1.470  0.00  0.00    -0.358 OA
HETATM   13  H   UNK     0      57.532  60.585   1.590  0.00  0.00     0.217 HD
ENDBRANCH   7  12
BRANCH   8  14
HETATM   14  O   UNK     0      60.316  59.879   3.486  0.00  0.00    -0.358 OA
HETATM   15  H   UNK     0      60.968  60.231   2.854  0.00  0.00     0.217 HD
ENDBRANCH   8  14
TORSDOF 2
ENDMDL
MODEL 8
REMARK VINA RESULT:      -5.8      2.146      3.762
REMARK  2 active torsions:
REMARK  status: ('A' for Active; 'I' for Inactive)
REMARK    1  A    between atoms: O_2  and  C_9 
REMARK    2  A    between atoms: O_3  and  C_10 
ROOT
HETATM    1  O   UNK     0      60.350  56.985   4.057  0.00  0.00    -0.275 OA
HETATM    2  O   UNK     0      59.937  59.128   4.753  0.00  0.00    -0.260 OA
HETATM    3  C   UNK     0      59.127  56.106   2.146  0.00  0.00     0.001 A 
HETATM    4  C   UNK     0      60.071  55.939   3.155  0.00  0.00     0.092 A 
HETATM    5  C   UNK     0      58.878  55.045   1.271  0.00  0.00     0.053 A 
HETATM    6  C   UNK     0      60.771  54.744   3.314  0.00  0.00     0.077 A 
HETATM    7  C   UNK     0      59.573  53.841   1.418  0.00  0.00     0.099 A 
HETATM    8  C   UNK     0      60.517  53.691   2.437  0.00  0.00     0.101 A 
HETATM    9  C   UNK     0      58.434  57.379   2.038  0.00  0.00     0.020 A 
HETATM   10  C   UNK     0      58.703  58.365   2.897  0.00  0.00     0.083 A 
HETATM   11  C   UNK     0      59.700  58.213   3.974  0.00  0.00     0.288 A 
ENDROOT
BRANCH   7  12
HETATM   12  O   UNK     0      59.320  52.815   0.557  0.00  0.00    -0.358 OA
HETATM   13  H   UNK     0      58.786  52.143   1.013  0.00  0.00     0.217 HD
ENDBRANCH   7  12
BRANCH   8  14
HETATM   14  O   UNK     0      61.195  52.519   2.584  0.00  0.00    -0.358 OA
HETATM   15  H   UNK     0      62.128  52.676   2.355  0.00  0.00     0.217 HD
ENDBRANCH   8  14
TORSDOF 2
ENDMDL
MODEL 9
REMARK VINA RESULT:      -5.7      2.885      5.595
REMARK  2 active torsions:
REMARK  status: ('A' for Active; 'I' for Inactive)
REMARK    1  A    between atoms: O_2  and  C_9 
REMARK    2  A    between atoms: O_3  and  C_10 
ROOT
HETATM    1  O   UNK     0      61.645  57.207   4.569  0.00  0.00    -0.275 OA
HETATM    2  O   UNK     0      59.808  58.571   4.457  0.00  0.00    -0.260 OA
HETATM    3  C   UNK     0      61.564  55.025   3.494  0.00  0.00     0.001 A 
HETATM    4  C   UNK     0      62.254  55.981   4.236  0.00  0.00     0.092 A 
HETATM    5  C   UNK     0      62.202  53.822   3.184  0.00  0.00     0.053 A 
HETATM    6  C   UNK     0      63.559  55.767   4.675  0.00  0.00     0.077 A 
HETATM    7  C   UNK     0      63.512  53.593   3.617  0.00  0.00     0.099 A 
HETATM    8  C   UNK     0      64.188  54.563   4.361  0.00  0.00     0.101 A 
HETATM    9  C   UNK     0      60.205  55.315   3.069  0.00  0.00     0.020 A 
HETATM   10  C   UNK     0      59.635  56.479   3.389  0.00  0.00     0.083 A 
HETATM   11  C   UNK     0      60.345  57.507   4.173  0.00  0.00     0.288 A 
ENDROOT
BRANCH   7  12
HETATM   12  O   UNK     0      64.121  52.414   3.306  0.00  0.00    -0.358 OA
HETATM   13  H   UNK     0      64.827  52.584   2.660  0.00  0.00     0.217 HD
ENDBRANCH   7  12
BRANCH   8  14
HETATM   14  O   UNK     0      65.464  54.344   4.785  0.00  0.00    -0.358 OA
HETATM   15  H   UNK     0      65.820  53.580   4.299  0.00  0.00     0.217 HD
ENDBRANCH   8  14
TORSDOF 2
ENDMDL
