MODEL 1
REMARK VINA RESULT:      -8.0      0.000      0.000
REMARK  5 active torsions:
REMARK  status: ('A' for Active; 'I' for Inactive)
REMARK    1  A    between atoms: O_2  and  C_13 
REMARK    2  A    between atoms: O_4  and  C_16 
REMARK    3  A    between atoms: O_5  and  C_19 
REMARK    4  A    between atoms: O_6  and  C_21 
REMARK    5  A    between atoms: C_9  and  C_10 
ROOT
HETATM    1  O   UNK     0      60.147  55.963   3.196  0.00  0.00    -0.309 OA
HETATM    2  O   UNK     0      60.304  60.025   3.467  0.00  0.00    -0.287 OA
HETATM    3  C   UNK     0      59.302  58.126   2.481  0.00  0.00     0.081 A 
HETATM    4  C   UNK     0      59.301  56.733   2.438  0.00  0.00     0.095 A 
HETATM    5  C   UNK     0      61.048  56.602   4.034  0.00  0.00     0.090 A 
HETATM    6  C   UNK     0      60.250  58.807   3.377  0.00  0.00     0.190 A 
HETATM    7  C   UNK     0      61.141  57.934   4.169  0.00  0.00     0.094 A 
HETATM    8  C   UNK     0      58.417  58.858   1.687  0.00  0.00     0.085 A 
HETATM    9  C   UNK     0      58.411  56.062   1.599  0.00  0.00     0.075 A 
HETATM   10  C   UNK     0      57.524  56.790   0.805  0.00  0.00     0.071 A 
HETATM   11  C   UNK     0      57.528  58.185   0.849  0.00  0.00     0.074 A 
ENDROOT
BRANCH   5  12
HETATM   12  C   UNK     0      61.905  55.681   4.806  0.00  0.00     0.001 A 
HETATM   13  C   UNK     0      63.231  55.467   4.421  0.00  0.00     0.053 A 
HETATM   14  C   UNK     0      64.041  54.598   5.150  0.00  0.00     0.099 A 
HETATM   15  C   UNK     0      63.529  53.939   6.268  0.00  0.00     0.098 A 
HETATM   16  C   UNK     0      62.206  54.149   6.655  0.00  0.00     0.040 A 
HETATM   17  C   UNK     0      61.395  55.019   5.925  0.00  0.00     0.017 A 
BRANCH  14  18
HETATM   18  O   UNK     0      65.332  54.399   4.762  0.00  0.00    -0.358 OA
HETATM   19  H   UNK     0      65.917  54.741   5.460  0.00  0.00     0.217 HD
ENDBRANCH  14  18
BRANCH  15  20
HETATM   20  O   UNK     0      64.310  53.088   6.989  0.00  0.00    -0.358 OA
HETATM   21  H   UNK     0      64.072  53.158   7.929  0.00  0.00     0.217 HD
ENDBRANCH  15  20
ENDBRANCH   5  12
BRANCH   8  22
HETATM   22  O   UNK     0      58.379  60.220   1.694  0.00  0.00    -0.360 OA
HETATM   23  H   UNK     0      59.028  60.574   2.321  0.00  0.00     0.217 HD
ENDBRANCH   8  22
BRANCH  10  24
HETATM   24  O   UNK     0      56.654  56.139  -0.015  0.00  0.00    -0.361 OA
HETATM   25  H   UNK     0      55.752  56.246   0.332  0.00  0.00     0.217 HD
ENDBRANCH  10  24
TORSDOF 5
ENDMDL
MODEL 2
REMARK VINA RESULT:      -8.0      1.436      2.974
REMARK  5 active torsions:
REMARK  status: ('A' for Active; 'I' for Inactive)
REMARK    1  A    between atoms: O_2  and  C_13 
REMARK    2  A    between atoms: O_4  and  C_16 
REMARK    3  A    between atoms: O_5  and  C_19 
REMARK    4  A    between atoms: O_6  and  C_21 
REMARK    5  A    between atoms: C_9  and  C_10 
ROOT
HETATM    1  O   UNK     0      60.503  56.642   3.920  0.00  0.00    -0.309 OA
HETATM    2  O   UNK     0      58.117  55.088   1.007  0.00  0.00    -0.287 OA
HETATM    3  C   UNK     0      58.945  57.015   2.094  0.00  0.00     0.081 A 
HETATM    4  C   UNK     0      59.781  57.479   3.109  0.00  0.00     0.095 A 
HETATM    5  C   UNK     0      60.389  55.274   3.727  0.00  0.00     0.090 A 
HETATM    6  C   UNK     0      58.829  55.564   1.880  0.00  0.00     0.190 A 
HETATM    7  C   UNK     0      59.624  54.706   2.781  0.00  0.00     0.094 A 
HETATM    8  C   UNK     0      58.234  57.915   1.298  0.00  0.00     0.085 A 
HETATM    9  C   UNK     0      59.910  58.850   3.333  0.00  0.00     0.075 A 
HETATM   10  C   UNK     0      59.201  59.752   2.539  0.00  0.00     0.071 A 
HETATM   11  C   UNK     0      58.365  59.286   1.525  0.00  0.00     0.074 A 
ENDROOT
BRANCH   5  12
HETATM   12  C   UNK     0      61.212  54.466   4.649  0.00  0.00     0.001 A 
HETATM   13  C   UNK     0      61.948  55.088   5.660  0.00  0.00     0.053 A 
HETATM   14  C   UNK     0      62.725  54.325   6.531  0.00  0.00     0.099 A 
HETATM   15  C   UNK     0      62.769  52.937   6.394  0.00  0.00     0.098 A 
HETATM   16  C   UNK     0      62.036  52.313   5.385  0.00  0.00     0.040 A 
HETATM   17  C   UNK     0      61.259  53.077   4.514  0.00  0.00     0.017 A 
BRANCH  14  18
HETATM   18  O   UNK     0      63.439  54.945   7.513  0.00  0.00    -0.358 OA
HETATM   19  H   UNK     0      62.812  55.322   8.155  0.00  0.00     0.217 HD
ENDBRANCH  14  18
BRANCH  15  20
HETATM   20  O   UNK     0      63.523  52.181   7.239  0.00  0.00    -0.358 OA
HETATM   21  H   UNK     0      64.464  52.338   7.051  0.00  0.00     0.217 HD
ENDBRANCH  15  20
ENDBRANCH   5  12
BRANCH   8  22
HETATM   22  O   UNK     0      57.405  57.511   0.295  0.00  0.00    -0.360 OA
HETATM   23  H   UNK     0      56.546  57.240   0.653  0.00  0.00     0.217 HD
ENDBRANCH   8  22
BRANCH  10  24
HETATM   24  O   UNK     0      59.326  61.091   2.755  0.00  0.00    -0.361 OA
HETATM   25  H   UNK     0      58.611  61.384   3.345  0.00  0.00     0.217 HD
ENDBRANCH  10  24
TORSDOF 5
ENDMDL
MODEL 3
REMARK VINA RESULT:      -7.7      2.163      7.520
REMARK  5 active torsions:
REMARK  status: ('A' for Active; 'I' for Inactive)
REMARK    1  A    between atoms: O_2  and  C_13 
REMARK    2  A    between atoms: O_4  and  C_16 
REMARK    3  A    between atoms: O_5  and  C_19 
REMARK    4  A    between atoms: O_6  and  C_21 
REMARK    5  A    between atoms: C_9  and  C_10 
ROOT
HETATM    1  O   UNK     0      61.362  55.072   3.277  0.00  0.00    -0.309 OA
HETATM    2  O   UNK     0      60.024  51.312   4.094  0.00  0.00    -0.287 OA
HETATM    3  C   UNK     0      61.812  52.855   4.162  0.00  0.00     0.081 A 
HETATM    4  C   UNK     0      62.204  54.157   3.857  0.00  0.00     0.095 A 
HETATM    5  C   UNK     0      60.067  54.679   2.974  0.00  0.00     0.090 A 
HETATM    6  C   UNK     0      60.436  52.437   3.851  0.00  0.00     0.190 A 
HETATM    7  C   UNK     0      59.570  53.458   3.225  0.00  0.00     0.094 A 
HETATM    8  C   UNK     0      62.712  51.966   4.753  0.00  0.00     0.085 A 
HETATM    9  C   UNK     0      63.502  54.579   4.142  0.00  0.00     0.075 A 
HETATM   10  C   UNK     0      64.404  53.695   4.733  0.00  0.00     0.071 A 
HETATM   11  C   UNK     0      64.010  52.391   5.037  0.00  0.00     0.074 A 
ENDROOT
BRANCH   5  12
HETATM   12  C   UNK     0      59.246  55.741   2.359  0.00  0.00     0.001 A 
HETATM   13  C   UNK     0      58.352  55.430   1.332  0.00  0.00     0.053 A 
HETATM   14  C   UNK     0      57.576  56.433   0.751  0.00  0.00     0.099 A 
HETATM   15  C   UNK     0      57.692  57.750   1.195  0.00  0.00     0.098 A 
HETATM   16  C   UNK     0      58.584  58.064   2.220  0.00  0.00     0.040 A 
HETATM   17  C   UNK     0      59.360  57.061   2.801  0.00  0.00     0.017 A 
BRANCH  14  18
HETATM   18  O   UNK     0      56.709  56.115  -0.251  0.00  0.00    -0.358 OA
HETATM   19  H   UNK     0      57.001  55.280  -0.654  0.00  0.00     0.217 HD
ENDBRANCH  14  18
BRANCH  15  20
HETATM   20  O   UNK     0      56.939  58.738   0.636  0.00  0.00    -0.358 OA
HETATM   21  H   UNK     0      55.998  58.532   0.768  0.00  0.00     0.217 HD
ENDBRANCH  15  20
ENDBRANCH   5  12
BRANCH   8  22
HETATM   22  O   UNK     0      62.377  50.685   5.070  0.00  0.00    -0.360 OA
HETATM   23  H   UNK     0      62.718  50.451   5.947  0.00  0.00     0.217 HD
ENDBRANCH   8  22
BRANCH  10  24
HETATM   24  O   UNK     0      65.673  54.104   5.014  0.00  0.00    -0.361 OA
HETATM   25  H   UNK     0      66.256  53.852   4.277  0.00  0.00     0.217 HD
ENDBRANCH  10  24
TORSDOF 5
ENDMDL
MODEL 4
REMARK VINA RESULT:      -7.6      2.294      2.558
REMARK  5 active torsions:
REMARK  status: ('A' for Active; 'I' for Inactive)
REMARK    1  A    between atoms: O_2  and  C_13 
REMARK    2  A    between atoms: O_4  and  C_16 
REMARK    3  A    between atoms: O_5  and  C_19 
REMARK    4  A    between atoms: O_6  and  C_21 
REMARK    5  A    between atoms: C_9  and  C_10 
ROOT
HETATM    1  O   UNK     0      59.775  55.596   2.961  0.00  0.00    -0.309 OA
HETATM    2  O   UNK     0      61.644  58.816   4.615  0.00  0.00    -0.287 OA
HETATM    3  C   UNK     0      59.970  58.009   3.156  0.00  0.00     0.081 A 
HETATM    4  C   UNK     0      59.374  56.865   2.629  0.00  0.00     0.095 A 
HETATM    5  C   UNK     0      60.825  55.448   3.855  0.00  0.00     0.090 A 
HETATM    6  C   UNK     0      61.078  57.856   4.112  0.00  0.00     0.190 A 
HETATM    7  C   UNK     0      61.474  56.470   4.434  0.00  0.00     0.094 A 
HETATM    8  C   UNK     0      59.519  59.277   2.782  0.00  0.00     0.085 A 
HETATM    9  C   UNK     0      58.321  56.982   1.723  0.00  0.00     0.075 A 
HETATM   10  C   UNK     0      57.867  58.246   1.347  0.00  0.00     0.071 A 
HETATM   11  C   UNK     0      58.464  59.391   1.875  0.00  0.00     0.074 A 
ENDROOT
BRANCH   5  12
HETATM   12  C   UNK     0      61.172  54.043   4.146  0.00  0.00     0.001 A 
HETATM   13  C   UNK     0      61.013  53.062   3.164  0.00  0.00     0.053 A 
HETATM   14  C   UNK     0      61.340  51.735   3.440  0.00  0.00     0.099 A 
HETATM   15  C   UNK     0      61.829  51.383   4.699  0.00  0.00     0.098 A 
HETATM   16  C   UNK     0      61.988  52.359   5.682  0.00  0.00     0.040 A 
HETATM   17  C   UNK     0      61.660  53.687   5.406  0.00  0.00     0.017 A 
BRANCH  14  18
HETATM   18  O   UNK     0      61.179  50.789   2.472  0.00  0.00    -0.358 OA
HETATM   19  H   UNK     0      61.890  50.132   2.565  0.00  0.00     0.217 HD
ENDBRANCH  14  18
BRANCH  15  20
HETATM   20  O   UNK     0      62.153  50.091   4.979  0.00  0.00    -0.358 OA
HETATM   21  H   UNK     0      61.950  49.538   4.205  0.00  0.00     0.217 HD
ENDBRANCH  15  20
ENDBRANCH   5  12
BRANCH   8  22
HETATM   22  O   UNK     0      60.067  60.424   3.269  0.00  0.00    -0.360 OA
HETATM   23  H   UNK     0      60.172  61.078   2.561  0.00  0.00     0.217 HD
ENDBRANCH   8  22
BRANCH  10  24
HETATM   24  O   UNK     0      56.838  58.364   0.462  0.00  0.00    -0.361 OA
HETATM   25  H   UNK     0      56.279  59.115   0.726  0.00  0.00     0.217 HD
ENDBRANCH  10  24
TORSDOF 5
ENDMDL
MODEL 5
REMARK VINA RESULT:      -7.5      2.598      6.432
REMARK  5 active torsions:
REMARK  status: ('A' for Active; 'I' for Inactive)
REMARK    1  A    between atoms: O_2  and  C_13 
REMARK    2  A    between atoms: O_4  and  C_16 
REMARK    3  A    between atoms: O_5  and  C_19 
REMARK    4  A    between atoms: O_6  and  C_21 
REMARK    5  A    between atoms: C_9  and  C_10 
ROOT
HETATM    1  O   UNK     0      59.822  55.040   3.165  0.00  0.00    -0.309 OA
HETATM    2  O   UNK     0      62.604  54.084   5.984  0.00  0.00    -0.287 OA
HETATM    3  C   UNK     0      61.006  53.327   4.417  0.00  0.00     0.081 A 
HETATM    4  C   UNK     0      60.069  53.724   3.464  0.00  0.00     0.095 A 
HETATM    5  C   UNK     0      60.530  56.016   3.849  0.00  0.00     0.090 A 
HETATM    6  C   UNK     0      61.765  54.360   5.137  0.00  0.00     0.190 A 
HETATM    7  C   UNK     0      61.460  55.761   4.782  0.00  0.00     0.094 A 
HETATM    8  C   UNK     0      61.216  51.972   4.678  0.00  0.00     0.085 A 
HETATM    9  C   UNK     0      59.337  52.765   2.765  0.00  0.00     0.075 A 
HETATM   10  C   UNK     0      59.544  51.409   3.023  0.00  0.00     0.071 A 
HETATM   11  C   UNK     0      60.481  51.014   3.978  0.00  0.00     0.074 A 
ENDROOT
BRANCH   5  12
HETATM   12  C   UNK     0      60.190  57.396   3.447  0.00  0.00     0.001 A 
HETATM   13  C   UNK     0      59.190  57.625   2.499  0.00  0.00     0.053 A 
HETATM   14  C   UNK     0      58.870  58.928   2.120  0.00  0.00     0.099 A 
HETATM   15  C   UNK     0      59.548  60.007   2.688  0.00  0.00     0.098 A 
HETATM   16  C   UNK     0      60.548  59.782   3.634  0.00  0.00     0.040 A 
HETATM   17  C   UNK     0      60.868  58.478   4.013  0.00  0.00     0.017 A 
BRANCH  14  18
HETATM   18  O   UNK     0      57.892  59.136   1.193  0.00  0.00    -0.358 OA
HETATM   19  H   UNK     0      57.114  59.501   1.647  0.00  0.00     0.217 HD
ENDBRANCH  14  18
BRANCH  15  20
HETATM   20  O   UNK     0      59.243  61.284   2.326  0.00  0.00    -0.358 OA
HETATM   21  H   UNK     0      58.604  61.649   2.961  0.00  0.00     0.217 HD
ENDBRANCH  15  20
ENDBRANCH   5  12
BRANCH   8  22
HETATM   22  O   UNK     0      62.119  51.534   5.599  0.00  0.00    -0.360 OA
HETATM   23  H   UNK     0      62.704  50.865   5.211  0.00  0.00     0.217 HD
ENDBRANCH   8  22
BRANCH  10  24
HETATM   24  O   UNK     0      58.831  50.470   2.342  0.00  0.00    -0.361 OA
HETATM   25  H   UNK     0      58.703  50.773   1.427  0.00  0.00     0.217 HD
ENDBRANCH  10  24
TORSDOF 5
ENDMDL
MODEL 6
REMARK VINA RESULT:      -7.4      1.948      7.082
REMARK  5 active torsions:
REMARK  status: ('A' for Active; 'I' for Inactive)
REMARK    1  A    between atoms: O_2  and  C_13 
REMARK    2  A    between atoms: O_4  and  C_16 
REMARK    3  A    between atoms: O_5  and  C_19 
REMARK    4  A    between atoms: O_6  and  C_21 
REMARK    5  A    between atoms: C_9  and  C_10 
ROOT
HETATM    1  O   UNK     0      60.069  53.726   3.672  0.00  0.00    -0.309 OA
HETATM    2  O   UNK     0      62.845  56.340   5.106  0.00  0.00    -0.287 OA
HETATM    3  C   UNK     0      61.978  54.143   5.115  0.00  0.00     0.081 A 
HETATM    4  C   UNK     0      61.002  53.302   4.584  0.00  0.00     0.095 A 
HETATM    5  C   UNK     0      60.095  55.053   3.269  0.00  0.00     0.090 A 
HETATM    6  C   UNK     0      62.015  55.548   4.683  0.00  0.00     0.190 A 
HETATM    7  C   UNK     0      60.988  55.957   3.703  0.00  0.00     0.094 A 
HETATM    8  C   UNK     0      62.903  53.654   6.040  0.00  0.00     0.085 A 
HETATM    9  C   UNK     0      60.946  51.964   4.975  0.00  0.00     0.075 A 
HETATM   10  C   UNK     0      61.869  51.473   5.898  0.00  0.00     0.071 A 
HETATM   11  C   UNK     0      62.845  52.316   6.430  0.00  0.00     0.074 A 
ENDROOT
BRANCH   5  12
HETATM   12  C   UNK     0      59.052  55.402   2.284  0.00  0.00     0.001 A 
HETATM   13  C   UNK     0      58.873  56.731   1.892  0.00  0.00     0.053 A 
HETATM   14  C   UNK     0      57.888  57.060   0.961  0.00  0.00     0.099 A 
HETATM   15  C   UNK     0      57.079  56.062   0.419  0.00  0.00     0.098 A 
HETATM   16  C   UNK     0      57.253  54.734   0.809  0.00  0.00     0.040 A 
HETATM   17  C   UNK     0      58.239  54.405   1.740  0.00  0.00     0.017 A 
BRANCH  14  18
HETATM   18  O   UNK     0      57.725  58.361   0.589  0.00  0.00    -0.358 OA
HETATM   19  H   UNK     0      57.037  58.398  -0.097  0.00  0.00     0.217 HD
ENDBRANCH  14  18
BRANCH  15  20
HETATM   20  O   UNK     0      56.114  56.371  -0.491  0.00  0.00    -0.358 OA
HETATM   21  H   UNK     0      55.681  57.199  -0.225  0.00  0.00     0.217 HD
ENDBRANCH  15  20
ENDBRANCH   5  12
BRANCH   8  22
HETATM   22  O   UNK     0      63.876  54.436   6.587  0.00  0.00    -0.360 OA
HETATM   23  H   UNK     0      63.606  55.367   6.583  0.00  0.00     0.217 HD
ENDBRANCH   8  22
BRANCH  10  24
HETATM   24  O   UNK     0      61.817  50.167   6.282  0.00  0.00    -0.361 OA
HETATM   25  H   UNK     0      61.069  50.046   6.892  0.00  0.00     0.217 HD
ENDBRANCH  10  24
TORSDOF 5
ENDMDL
MODEL 7
REMARK VINA RESULT:      -7.3      2.918      5.204
REMARK  5 active torsions:
REMARK  status: ('A' for Active; 'I' for Inactive)
REMARK    1  A    between atoms: O_2  and  C_13 
REMARK    2  A    between atoms: O_4  and  C_16 
REMARK    3  A    between atoms: O_5  and  C_19 
REMARK    4  A    between atoms: O_6  and  C_21 
REMARK    5  A    between atoms: C_9  and  C_10 
ROOT
HETATM    1  O   UNK     0      61.971  54.193   6.022  0.00  0.00    -0.309 OA
HETATM    2  O   UNK     0      61.485  51.584   2.931  0.00  0.00    -0.287 OA
HETATM    3  C   UNK     0      61.145  53.763   3.778  0.00  0.00     0.081 A 
HETATM    4  C   UNK     0      61.345  54.603   4.872  0.00  0.00     0.095 A 
HETATM    5  C   UNK     0      62.417  52.882   6.099  0.00  0.00     0.090 A 
HETATM    6  C   UNK     0      61.624  52.374   3.853  0.00  0.00     0.190 A 
HETATM    7  C   UNK     0      62.289  51.981   5.113  0.00  0.00     0.094 A 
HETATM    8  C   UNK     0      60.501  54.236   2.633  0.00  0.00     0.085 A 
HETATM    9  C   UNK     0      60.901  55.925   4.827  0.00  0.00     0.075 A 
HETATM   10  C   UNK     0      60.258  56.401   3.684  0.00  0.00     0.071 A 
HETATM   11  C   UNK     0      60.058  55.559   2.590  0.00  0.00     0.074 A 
ENDROOT
BRANCH   5  12
HETATM   12  C   UNK     0      63.080  52.548   7.375  0.00  0.00     0.001 A 
HETATM   13  C   UNK     0      62.811  51.333   8.010  0.00  0.00     0.053 A 
HETATM   14  C   UNK     0      63.438  51.018   9.215  0.00  0.00     0.099 A 
HETATM   15  C   UNK     0      64.336  51.917   9.790  0.00  0.00     0.098 A 
HETATM   16  C   UNK     0      64.607  53.132   9.161  0.00  0.00     0.040 A 
HETATM   17  C   UNK     0      63.980  53.447   7.955  0.00  0.00     0.017 A 
BRANCH  14  18
HETATM   18  O   UNK     0      63.165  49.829   9.822  0.00  0.00    -0.358 OA
HETATM   19  H   UNK     0      63.229  49.955  10.784  0.00  0.00     0.217 HD
ENDBRANCH  14  18
BRANCH  15  20
HETATM   20  O   UNK     0      64.955  51.620  10.967  0.00  0.00    -0.358 OA
HETATM   21  H   UNK     0      65.303  52.439  11.357  0.00  0.00     0.217 HD
ENDBRANCH  15  20
ENDBRANCH   5  12
BRANCH   8  22
HETATM   22  O   UNK     0      60.282  53.455   1.539  0.00  0.00    -0.360 OA
HETATM   23  H   UNK     0      60.825  53.754   0.793  0.00  0.00     0.217 HD
ENDBRANCH   8  22
BRANCH  10  24
HETATM   24  O   UNK     0      59.823  57.691   3.636  0.00  0.00    -0.361 OA
HETATM   25  H   UNK     0      59.225  57.795   2.877  0.00  0.00     0.217 HD
ENDBRANCH  10  24
TORSDOF 5
ENDMDL
MODEL 8
REMARK VINA RESULT:      -7.3      3.323      5.002
REMARK  5 active torsions:
REMARK  status: ('A' for Active; 'I' for Inactive)
REMARK    1  A    between atoms: O_2  and  C_13 
REMARK    2  A    between atoms: O_4  and  C_16 
REMARK    3  A    between atoms: O_5  and  C_19 
REMARK    4  A    between atoms: O_6  and  C_21 
REMARK    5  A    between atoms: C_9  and  C_10 
ROOT
HETATM    1  O   UNK     0      61.772  52.399   5.983  0.00  0.00    -0.309 OA
HETATM    2  O   UNK     0      61.774  56.304   4.822  0.00  0.00    -0.287 OA
HETATM    3  C   UNK     0      61.000  54.105   4.436  0.00  0.00     0.081 A 
HETATM    4  C   UNK     0      61.043  52.788   4.888  0.00  0.00     0.095 A 
HETATM    5  C   UNK     0      62.504  53.359   6.664  0.00  0.00     0.090 A 
HETATM    6  C   UNK     0      61.768  55.129   5.161  0.00  0.00     0.190 A 
HETATM    7  C   UNK     0      62.539  54.660   6.331  0.00  0.00     0.094 A 
HETATM    8  C   UNK     0      60.239  54.443   3.315  0.00  0.00     0.085 A 
HETATM    9  C   UNK     0      60.322  51.798   4.220  0.00  0.00     0.075 A 
HETATM   10  C   UNK     0      59.560  52.131   3.099  0.00  0.00     0.071 A 
HETATM   11  C   UNK     0      59.519  53.451   2.648  0.00  0.00     0.074 A 
ENDROOT
BRANCH   5  12
HETATM   12  C   UNK     0      63.247  52.836   7.827  0.00  0.00     0.001 A 
HETATM   13  C   UNK     0      62.954  51.567   8.333  0.00  0.00     0.053 A 
HETATM   14  C   UNK     0      63.656  51.072   9.433  0.00  0.00     0.099 A 
HETATM   15  C   UNK     0      64.653  51.845  10.029  0.00  0.00     0.098 A 
HETATM   16  C   UNK     0      64.947  53.112   9.527  0.00  0.00     0.040 A 
HETATM   17  C   UNK     0      64.245  53.607   8.428  0.00  0.00     0.017 A 
BRANCH  14  18
HETATM   18  O   UNK     0      63.359  49.833   9.916  0.00  0.00    -0.358 OA
HETATM   19  H   UNK     0      63.477  49.845  10.881  0.00  0.00     0.217 HD
ENDBRANCH  14  18
BRANCH  15  20
HETATM   20  O   UNK     0      65.345  51.372  11.103  0.00  0.00    -0.358 OA
HETATM   21  H   UNK     0      66.038  52.012  11.339  0.00  0.00     0.217 HD
ENDBRANCH  15  20
ENDBRANCH   5  12
BRANCH   8  22
HETATM   22  O   UNK     0      60.165  55.716   2.835  0.00  0.00    -0.360 OA
HETATM   23  H   UNK     0      59.240  55.995   2.753  0.00  0.00     0.217 HD
ENDBRANCH   8  22
BRANCH  10  24
HETATM   24  O   UNK     0      58.856  51.167   2.445  0.00  0.00    -0.361 OA
HETATM   25  H   UNK     0      59.391  50.356   2.407  0.00  0.00     0.217 HD
ENDBRANCH  10  24
TORSDOF 5
ENDMDL
MODEL 9
REMARK VINA RESULT:      -7.2      2.300      6.996
REMARK  5 active torsions:
REMARK  status: ('A' for Active; 'I' for Inactive)
REMARK    1  A    between atoms: O_2  and  C_13 
REMARK    2  A    between atoms: O_4  and  C_16 
REMARK    3  A    between atoms: O_5  and  C_19 
REMARK    4  A    between atoms: O_6  and  C_21 
REMARK    5  A    between atoms: C_9  and  C_10 
ROOT
HETATM    1  O   UNK     0      60.227  54.020   3.293  0.00  0.00    -0.309 OA
HETATM    2  O   UNK     0      62.947  55.329   6.029  0.00  0.00    -0.287 OA
HETATM    3  C   UNK     0      61.967  53.496   4.905  0.00  0.00     0.081 A 
HETATM    4  C   UNK     0      61.018  53.118   3.957  0.00  0.00     0.095 A 
HETATM    5  C   UNK     0      60.374  55.368   3.585  0.00  0.00     0.090 A 
HETATM    6  C   UNK     0      62.132  54.926   5.211  0.00  0.00     0.190 A 
HETATM    7  C   UNK     0      61.255  55.857   4.471  0.00  0.00     0.094 A 
HETATM    8  C   UNK     0      62.745  52.532   5.550  0.00  0.00     0.085 A 
HETATM    9  C   UNK     0      60.842  51.769   3.648  0.00  0.00     0.075 A 
HETATM   10  C   UNK     0      61.617  50.803   4.289  0.00  0.00     0.071 A 
HETATM   11  C   UNK     0      62.566  51.184   5.238  0.00  0.00     0.074 A 
ENDROOT
BRANCH   5  12
HETATM   12  C   UNK     0      59.479  56.251   2.811  0.00  0.00     0.001 A 
HETATM   13  C   UNK     0      58.687  55.725   1.788  0.00  0.00     0.053 A 
HETATM   14  C   UNK     0      57.842  56.560   1.057  0.00  0.00     0.099 A 
HETATM   15  C   UNK     0      57.786  57.924   1.347  0.00  0.00     0.098 A 
HETATM   16  C   UNK     0      58.576  58.452   2.367  0.00  0.00     0.040 A 
HETATM   17  C   UNK     0      59.422  57.617   3.098  0.00  0.00     0.017 A 
BRANCH  14  18
HETATM   18  O   UNK     0      57.075  56.033   0.061  0.00  0.00    -0.358 OA
HETATM   19  H   UNK     0      56.246  55.710   0.453  0.00  0.00     0.217 HD
ENDBRANCH  14  18
BRANCH  15  20
HETATM   20  O   UNK     0      56.964  58.748   0.640  0.00  0.00    -0.358 OA
HETATM   21  H   UNK     0      56.397  58.211   0.062  0.00  0.00     0.217 HD
ENDBRANCH  15  20
ENDBRANCH   5  12
BRANCH   8  22
HETATM   22  O   UNK     0      63.685  52.852   6.482  0.00  0.00    -0.360 OA
HETATM   23  H   UNK     0      64.473  53.223   6.057  0.00  0.00     0.217 HD
ENDBRANCH   8  22
BRANCH  10  24
HETATM   24  O   UNK     0      61.448  49.485   3.989  0.00  0.00    -0.361 OA
HETATM   25  H   UNK     0      61.238  49.000   4.805  0.00  0.00     0.217 HD
ENDBRANCH  10  24
TORSDOF 5
ENDMDL
