MODEL 1
REMARK VINA RESULT:      -4.7      0.000      0.000
REMARK  0 active torsions:
REMARK  status: ('A' for Active; 'I' for Inactive)
REMARK       I    between atoms: N_1  and  C_8 
REMARK       I    between atoms: N_2  and  C_8 
REMARK       I    between atoms: N_4  and  C_9 
REMARK       I    between atoms: N_5  and  C_9 
ROOT
HETATM    1  N   UNK     0      68.776  51.974   8.305  0.00  0.00    -0.223 N 
HETATM    2  N   UNK     0      69.046  54.080   9.467  0.00  0.00     0.127 NA
HETATM    3  N   UNK     0      69.201  54.064   7.219  0.00  0.00    -0.115 NA
HETATM    4  N   UNK     0      67.875  55.314  11.063  0.00  0.00    -0.233 N 
HETATM    5  N   UNK     0      66.677  54.460   9.316  0.00  0.00    -0.233 N 
HETATM    6  C   UNK     0      68.575  51.236   9.547  0.00  0.00     0.168 C 
HETATM    7  C   UNK     0      68.600  51.216   7.070  0.00  0.00     0.168 C 
HETATM    8  C   UNK     0      69.014  53.352   8.292  0.00  0.00     0.732 C 
HETATM    9  C   UNK     0      67.918  54.579   9.903  0.00  0.00     0.707 C 
HETATM   10  H   UNK     0      69.162  53.473   6.385  0.00  0.00     0.206 HD
HETATM   11  H   UNK     0      67.007  55.704  11.412  0.00  0.00     0.174 HD
HETATM   12  H   UNK     0      68.715  55.485  11.606  0.00  0.00     0.174 HD
HETATM   13  H   UNK     0      66.538  53.946   8.454  0.00  0.00     0.174 HD
HETATM   14  H   UNK     0      65.857  54.886   9.735  0.00  0.00     0.174 HD
ENDROOT
TORSDOF 0
ENDMDL
MODEL 2
REMARK VINA RESULT:      -4.6      1.553      1.638
REMARK  0 active torsions:
REMARK  status: ('A' for Active; 'I' for Inactive)
REMARK       I    between atoms: N_1  and  C_8 
REMARK       I    between atoms: N_2  and  C_8 
REMARK       I    between atoms: N_4  and  C_9 
REMARK       I    between atoms: N_5  and  C_9 
ROOT
HETATM    1  N   UNK     0      67.245  52.224   7.064  0.00  0.00    -0.223 N 
HETATM    2  N   UNK     0      68.556  52.944   8.968  0.00  0.00     0.127 NA
HETATM    3  N   UNK     0      68.983  53.867   6.957  0.00  0.00    -0.115 NA
HETATM    4  N   UNK     0      68.148  53.729  11.126  0.00  0.00    -0.233 N 
HETATM    5  N   UNK     0      66.936  54.660   9.428  0.00  0.00    -0.233 N 
HETATM    6  C   UNK     0      66.472  51.283   7.866  0.00  0.00     0.168 C 
HETATM    7  C   UNK     0      66.826  52.384   5.676  0.00  0.00     0.168 C 
HETATM    8  C   UNK     0      68.260  53.012   7.619  0.00  0.00     0.732 C 
HETATM    9  C   UNK     0      67.904  53.742   9.773  0.00  0.00     0.707 C 
HETATM   10  H   UNK     0      68.715  53.875   5.970  0.00  0.00     0.206 HD
HETATM   11  H   UNK     0      67.648  54.341  11.761  0.00  0.00     0.174 HD
HETATM   12  H   UNK     0      68.837  53.103  11.528  0.00  0.00     0.174 HD
HETATM   13  H   UNK     0      66.640  54.790   8.468  0.00  0.00     0.174 HD
HETATM   14  H   UNK     0      66.485  55.235  10.131  0.00  0.00     0.174 HD
ENDROOT
TORSDOF 0
ENDMDL
MODEL 3
REMARK VINA RESULT:      -4.6      1.439      2.439
REMARK  0 active torsions:
REMARK  status: ('A' for Active; 'I' for Inactive)
REMARK       I    between atoms: N_1  and  C_8 
REMARK       I    between atoms: N_2  and  C_8 
REMARK       I    between atoms: N_4  and  C_9 
REMARK       I    between atoms: N_5  and  C_9 
ROOT
HETATM    1  N   UNK     0      68.745  52.743   8.749  0.00  0.00    -0.223 N 
HETATM    2  N   UNK     0      66.882  53.945   9.722  0.00  0.00     0.127 NA
HETATM    3  N   UNK     0      67.943  52.404  10.978  0.00  0.00    -0.115 NA
HETATM    4  N   UNK     0      66.233  56.169   9.983  0.00  0.00    -0.233 N 
HETATM    5  N   UNK     0      68.394  55.644  10.502  0.00  0.00    -0.233 N 
HETATM    6  C   UNK     0      68.620  53.443   7.475  0.00  0.00     0.168 C 
HETATM    7  C   UNK     0      69.890  51.848   8.881  0.00  0.00     0.168 C 
HETATM    8  C   UNK     0      67.882  52.995   9.821  0.00  0.00     0.732 C 
HETATM    9  C   UNK     0      67.178  55.174  10.056  0.00  0.00     0.707 C 
HETATM   10  H   UNK     0      68.702  51.718  10.992  0.00  0.00     0.206 HD
HETATM   11  H   UNK     0      66.450  57.127  10.237  0.00  0.00     0.174 HD
HETATM   12  H   UNK     0      65.289  55.973   9.670  0.00  0.00     0.174 HD
HETATM   13  H   UNK     0      69.197  55.034  10.610  0.00  0.00     0.174 HD
HETATM   14  H   UNK     0      68.524  56.622  10.737  0.00  0.00     0.174 HD
ENDROOT
TORSDOF 0
ENDMDL
MODEL 4
REMARK VINA RESULT:      -4.4      1.948      2.456
REMARK  0 active torsions:
REMARK  status: ('A' for Active; 'I' for Inactive)
REMARK       I    between atoms: N_1  and  C_8 
REMARK       I    between atoms: N_2  and  C_8 
REMARK       I    between atoms: N_4  and  C_9 
REMARK       I    between atoms: N_5  and  C_9 
ROOT
HETATM    1  N   UNK     0      69.010  50.499   8.169  0.00  0.00    -0.223 N 
HETATM    2  N   UNK     0      70.292  52.486   8.685  0.00  0.00     0.127 NA
HETATM    3  N   UNK     0      71.000  51.153   7.011  0.00  0.00    -0.115 NA
HETATM    4  N   UNK     0      69.876  54.765   8.958  0.00  0.00    -0.233 N 
HETATM    5  N   UNK     0      68.952  53.746   7.135  0.00  0.00    -0.233 N 
HETATM    6  C   UNK     0      68.039  50.769   9.224  0.00  0.00     0.168 C 
HETATM    7  C   UNK     0      68.716  49.365   7.299  0.00  0.00     0.168 C 
HETATM    8  C   UNK     0      70.102  51.341   7.934  0.00  0.00     0.732 C 
HETATM    9  C   UNK     0      69.729  53.589   8.263  0.00  0.00     0.707 C 
HETATM   10  H   UNK     0      70.803  50.296   6.488  0.00  0.00     0.206 HD
HETATM   11  H   UNK     0      69.444  55.626   8.643  0.00  0.00     0.174 HD
HETATM   12  H   UNK     0      70.423  54.803   9.812  0.00  0.00     0.174 HD
HETATM   13  H   UNK     0      68.746  52.971   6.515  0.00  0.00     0.174 HD
HETATM   14  H   UNK     0      68.557  54.648   6.892  0.00  0.00     0.174 HD
ENDROOT
TORSDOF 0
ENDMDL
MODEL 5
REMARK VINA RESULT:      -4.3      1.681      3.226
REMARK  0 active torsions:
REMARK  status: ('A' for Active; 'I' for Inactive)
REMARK       I    between atoms: N_1  and  C_8 
REMARK       I    between atoms: N_2  and  C_8 
REMARK       I    between atoms: N_4  and  C_9 
REMARK       I    between atoms: N_5  and  C_9 
ROOT
HETATM    1  N   UNK     0      68.132  50.988  10.237  0.00  0.00    -0.223 N 
HETATM    2  N   UNK     0      68.065  53.069   9.003  0.00  0.00     0.127 NA
HETATM    3  N   UNK     0      68.357  53.151  11.236  0.00  0.00    -0.115 NA
HETATM    4  N   UNK     0      69.120  53.983   7.134  0.00  0.00    -0.233 N 
HETATM    5  N   UNK     0      70.444  52.947   8.680  0.00  0.00    -0.233 N 
HETATM    6  C   UNK     0      67.931  50.188   9.034  0.00  0.00     0.168 C 
HETATM    7  C   UNK     0      68.392  50.246  11.466  0.00  0.00     0.168 C 
HETATM    8  C   UNK     0      68.182  52.386  10.199  0.00  0.00     0.732 C 
HETATM    9  C   UNK     0      69.161  53.307   8.330  0.00  0.00     0.707 C 
HETATM   10  H   UNK     0      68.442  52.590  12.086  0.00  0.00     0.206 HD
HETATM   11  H   UNK     0      69.962  54.172   6.602  0.00  0.00     0.174 HD
HETATM   12  H   UNK     0      68.241  54.310   6.748  0.00  0.00     0.174 HD
HETATM   13  H   UNK     0      70.644  52.441   9.535  0.00  0.00     0.174 HD
HETATM   14  H   UNK     0      71.234  53.179   8.086  0.00  0.00     0.174 HD
ENDROOT
TORSDOF 0
ENDMDL
MODEL 6
REMARK VINA RESULT:      -4.3     21.117     22.215
REMARK  0 active torsions:
REMARK  status: ('A' for Active; 'I' for Inactive)
REMARK       I    between atoms: N_1  and  C_8 
REMARK       I    between atoms: N_2  and  C_8 
REMARK       I    between atoms: N_4  and  C_9 
REMARK       I    between atoms: N_5  and  C_9 
ROOT
HETATM    1  N   UNK     0      61.376  71.419  -1.781  0.00  0.00    -0.223 N 
HETATM    2  N   UNK     0      60.521  69.978  -3.527  0.00  0.00     0.127 NA
HETATM    3  N   UNK     0      61.969  69.114  -2.032  0.00  0.00    -0.115 NA
HETATM    4  N   UNK     0      58.435  69.383  -4.385  0.00  0.00    -0.233 N 
HETATM    5  N   UNK     0      58.674  69.369  -2.113  0.00  0.00    -0.233 N 
HETATM    6  C   UNK     0      60.621  72.569  -2.266  0.00  0.00     0.168 C 
HETATM    7  C   UNK     0      62.102  71.608  -0.529  0.00  0.00     0.168 C 
HETATM    8  C   UNK     0      61.320  70.174  -2.417  0.00  0.00     0.732 C 
HETATM    9  C   UNK     0      59.285  69.599  -3.327  0.00  0.00     0.707 C 
HETATM   10  H   UNK     0      62.537  69.320  -1.207  0.00  0.00     0.206 HD
HETATM   11  H   UNK     0      57.474  69.091  -4.242  0.00  0.00     0.174 HD
HETATM   12  H   UNK     0      58.746  69.513  -5.341  0.00  0.00     0.174 HD
HETATM   13  H   UNK     0      59.167  69.485  -1.235  0.00  0.00     0.174 HD
HETATM   14  H   UNK     0      57.704  69.076  -2.062  0.00  0.00     0.174 HD
ENDROOT
TORSDOF 0
ENDMDL
MODEL 7
REMARK VINA RESULT:      -4.3      1.968      2.503
REMARK  0 active torsions:
REMARK  status: ('A' for Active; 'I' for Inactive)
REMARK       I    between atoms: N_1  and  C_8 
REMARK       I    between atoms: N_2  and  C_8 
REMARK       I    between atoms: N_4  and  C_9 
REMARK       I    between atoms: N_5  and  C_9 
ROOT
HETATM    1  N   UNK     0      67.634  52.993   7.723  0.00  0.00    -0.223 N 
HETATM    2  N   UNK     0      68.508  53.514   9.919  0.00  0.00     0.127 NA
HETATM    3  N   UNK     0      66.617  54.536   9.244  0.00  0.00    -0.115 NA
HETATM    4  N   UNK     0      69.200  52.333  11.808  0.00  0.00    -0.233 N 
HETATM    5  N   UNK     0      67.220  51.712  10.853  0.00  0.00    -0.233 N 
HETATM    6  C   UNK     0      68.720  52.063   7.435  0.00  0.00     0.168 C 
HETATM    7  C   UNK     0      66.568  53.065   6.728  0.00  0.00     0.168 C 
HETATM    8  C   UNK     0      67.558  53.695   8.931  0.00  0.00     0.732 C 
HETATM    9  C   UNK     0      68.298  52.567  10.797  0.00  0.00     0.707 C 
HETATM   10  H   UNK     0      65.944  54.623   8.479  0.00  0.00     0.206 HD
HETATM   11  H   UNK     0      69.049  51.601  12.493  0.00  0.00     0.174 HD
HETATM   12  H   UNK     0      70.045  52.886  11.894  0.00  0.00     0.174 HD
HETATM   13  H   UNK     0      66.466  51.755  10.176  0.00  0.00     0.174 HD
HETATM   14  H   UNK     0      67.148  51.006  11.578  0.00  0.00     0.174 HD
ENDROOT
TORSDOF 0
ENDMDL
MODEL 8
REMARK VINA RESULT:      -4.3     12.248     13.068
REMARK  0 active torsions:
REMARK  status: ('A' for Active; 'I' for Inactive)
REMARK       I    between atoms: N_1  and  C_8 
REMARK       I    between atoms: N_2  and  C_8 
REMARK       I    between atoms: N_4  and  C_9 
REMARK       I    between atoms: N_5  and  C_9 
ROOT
HETATM    1  N   UNK     0      58.145  56.356   1.191  0.00  0.00    -0.223 N 
HETATM    2  N   UNK     0      59.149  58.556   1.295  0.00  0.00     0.127 NA
HETATM    3  N   UNK     0      56.982  58.389   0.697  0.00  0.00    -0.115 NA
HETATM    4  N   UNK     0      60.376  59.803   2.836  0.00  0.00    -0.233 N 
HETATM    5  N   UNK     0      58.513  58.730   3.607  0.00  0.00    -0.233 N 
HETATM    6  C   UNK     0      59.385  55.696   1.584  0.00  0.00     0.168 C 
HETATM    7  C   UNK     0      56.970  55.498   1.068  0.00  0.00     0.168 C 
HETATM    8  C   UNK     0      58.057  57.744   1.045  0.00  0.00     0.732 C 
HETATM    9  C   UNK     0      59.314  58.991   2.517  0.00  0.00     0.707 C 
HETATM   10  H   UNK     0      56.211  57.737   0.532  0.00  0.00     0.206 HD
HETATM   11  H   UNK     0      60.517  60.146   3.780  0.00  0.00     0.174 HD
HETATM   12  H   UNK     0      61.053  60.081   2.134  0.00  0.00     0.174 HD
HETATM   13  H   UNK     0      57.688  58.145   3.538  0.00  0.00     0.174 HD
HETATM   14  H   UNK     0      58.728  59.117   4.520  0.00  0.00     0.174 HD
ENDROOT
TORSDOF 0
ENDMDL
MODEL 9
REMARK VINA RESULT:      -4.3      1.941      2.854
REMARK  0 active torsions:
REMARK  status: ('A' for Active; 'I' for Inactive)
REMARK       I    between atoms: N_1  and  C_8 
REMARK       I    between atoms: N_2  and  C_8 
REMARK       I    between atoms: N_4  and  C_9 
REMARK       I    between atoms: N_5  and  C_9 
ROOT
HETATM    1  N   UNK     0      66.162  52.174   9.923  0.00  0.00    -0.223 N 
HETATM    2  N   UNK     0      67.643  53.875   9.044  0.00  0.00     0.127 NA
HETATM    3  N   UNK     0      65.418  54.209   8.907  0.00  0.00    -0.115 NA
HETATM    4  N   UNK     0      69.483  55.095   9.797  0.00  0.00    -0.233 N 
HETATM    5  N   UNK     0      67.685  54.943  11.198  0.00  0.00    -0.233 N 
HETATM    6  C   UNK     0      67.273  51.320  10.329  0.00  0.00     0.168 C 
HETATM    7  C   UNK     0      64.830  51.727  10.317  0.00  0.00     0.168 C 
HETATM    8  C   UNK     0      66.366  53.405   9.291  0.00  0.00     0.732 C 
HETATM    9  C   UNK     0      68.215  54.594   9.975  0.00  0.00     0.707 C 
HETATM   10  H   UNK     0      64.501  53.810   9.120  0.00  0.00     0.206 HD
HETATM   11  H   UNK     0      69.938  55.652  10.511  0.00  0.00     0.174 HD
HETATM   12  H   UNK     0      70.000  54.918   8.943  0.00  0.00     0.174 HD
HETATM   13  H   UNK     0      66.758  54.650  11.483  0.00  0.00     0.174 HD
HETATM   14  H   UNK     0      68.212  55.507  11.856  0.00  0.00     0.174 HD
ENDROOT
TORSDOF 0
ENDMDL
