MODEL 1
REMARK VINA RESULT:      -8.3      0.000      0.000
REMARK  4 active torsions:
REMARK  status: ('A' for Active; 'I' for Inactive)
REMARK    1  A    between atoms: O_1  and  C_26 
REMARK    2  A    between atoms: C_4  and  C_5 
REMARK    3  A    between atoms: C_4  and  C_6 
REMARK    4  A    between atoms: C_4  and  C_7 
ROOT
HETATM    1  C   UNK     0      21.924  23.980  45.775  0.00  0.00     0.089 C 
ENDROOT
BRANCH   1   2
HETATM    2  C   UNK     0      20.762  23.288  46.369  0.00  0.00    -0.017 A 
HETATM    3  C   UNK     0      19.906  22.355  45.719  0.00  0.00    -0.001 A 
HETATM    4  C   UNK     0      18.948  21.956  46.654  0.00  0.00     0.042 A 
HETATM    5  C   UNK     0      19.853  21.812  44.420  0.00  0.00     0.014 A 
HETATM    6  N   UNK     0      19.222  22.626  47.825  0.00  0.00    -0.365 N 
HETATM    7  C   UNK     0      17.938  21.037  46.353  0.00  0.00     0.030 A 
HETATM    8  C   UNK     0      20.316  23.433  47.663  0.00  0.00     0.097 A 
HETATM    9  H   UNK     0      18.691  22.536  48.680  0.00  0.00     0.165 HD
HETATM   10  C   UNK     0      17.905  20.510  45.059  0.00  0.00     0.002 A 
HETATM   11  C   UNK     0      18.847  20.891  44.105  0.00  0.00     0.001 A 
ENDBRANCH   1   2
BRANCH   1  12
HETATM   12  C   UNK     0      21.833  25.481  45.482  0.00  0.00    -0.017 A 
HETATM   13  C   UNK     0      21.808  26.478  46.452  0.00  0.00    -0.001 A 
HETATM   14  C   UNK     0      21.723  27.678  45.743  0.00  0.00     0.042 A 
HETATM   15  C   UNK     0      21.849  26.523  47.860  0.00  0.00     0.014 A 
HETATM   16  N   UNK     0      21.700  27.357  44.405  0.00  0.00    -0.365 N 
HETATM   17  C   UNK     0      21.674  28.926  46.374  0.00  0.00     0.030 A 
HETATM   18  C   UNK     0      21.768  25.999  44.243  0.00  0.00     0.097 A 
HETATM   19  H   UNK     0      21.641  28.028  43.651  0.00  0.00     0.165 HD
HETATM   20  C   UNK     0      21.715  28.946  47.771  0.00  0.00     0.002 A 
HETATM   21  C   UNK     0      21.801  27.764  48.505  0.00  0.00     0.001 A 
ENDBRANCH   1  12
BRANCH   1  22
HETATM   22  C   UNK     0      23.177  23.733  46.629  0.00  0.00    -0.045 A 
HETATM   23  C   UNK     0      23.040  23.031  47.800  0.00  0.00     0.011 A 
HETATM   24  C   UNK     0      24.179  22.808  48.574  0.00  0.00     0.037 A 
HETATM   25  C   UNK     0      25.416  23.296  48.153  0.00  0.00     0.065 A 
HETATM   26  C   UNK     0      25.515  24.006  46.957  0.00  0.00     0.037 A 
HETATM   27  C   UNK     0      24.376  24.228  46.182  0.00  0.00     0.011 A 
BRANCH  25  28
HETATM   28  O   UNK     0      26.526  23.077  48.909  0.00  0.00    -0.361 OA
HETATM   29  H   UNK     0      27.279  23.542  48.504  0.00  0.00     0.217 HD
ENDBRANCH  25  28
ENDBRANCH   1  22
TORSDOF 4
ENDMDL
MODEL 2
REMARK VINA RESULT:      -8.2      2.417      4.372
REMARK  4 active torsions:
REMARK  status: ('A' for Active; 'I' for Inactive)
REMARK    1  A    between atoms: O_1  and  C_26 
REMARK    2  A    between atoms: C_4  and  C_5 
REMARK    3  A    between atoms: C_4  and  C_6 
REMARK    4  A    between atoms: C_4  and  C_7 
ROOT
HETATM    1  C   UNK     0      21.879  24.520  46.718  0.00  0.00     0.089 C 
ENDROOT
BRANCH   1   2
HETATM    2  C   UNK     0      20.868  23.969  45.793  0.00  0.00    -0.017 A 
HETATM    3  C   UNK     0      19.901  22.967  46.092  0.00  0.00    -0.001 A 
HETATM    4  C   UNK     0      19.157  22.755  44.930  0.00  0.00     0.042 A 
HETATM    5  C   UNK     0      19.588  22.219  47.245  0.00  0.00     0.014 A 
HETATM    6  N   UNK     0      19.661  23.601  43.967  0.00  0.00    -0.365 N 
HETATM    7  C   UNK     0      18.111  21.829  44.862  0.00  0.00     0.030 A 
HETATM    8  C   UNK     0      20.695  24.338  44.479  0.00  0.00     0.097 A 
HETATM    9  H   UNK     0      19.318  23.666  43.019  0.00  0.00     0.165 HD
HETATM   10  C   UNK     0      17.817  21.098  46.017  0.00  0.00     0.002 A 
HETATM   11  C   UNK     0      18.543  21.288  47.191  0.00  0.00     0.001 A 
ENDBRANCH   1   2
BRANCH   1  12
HETATM   12  C   UNK     0      23.366  24.385  46.371  0.00  0.00    -0.017 A 
HETATM   13  C   UNK     0      24.406  24.497  47.287  0.00  0.00    -0.001 A 
HETATM   14  C   UNK     0      25.572  24.306  46.544  0.00  0.00     0.042 A 
HETATM   15  C   UNK     0      24.517  24.738  48.672  0.00  0.00     0.014 A 
HETATM   16  N   UNK     0      25.190  24.093  45.239  0.00  0.00    -0.365 N 
HETATM   17  C   UNK     0      26.849  24.345  47.116  0.00  0.00     0.030 A 
HETATM   18  C   UNK     0      23.826  24.142  45.132  0.00  0.00     0.097 A 
HETATM   19  H   UNK     0      25.826  23.925  44.470  0.00  0.00     0.165 HD
HETATM   20  C   UNK     0      26.933  24.586  48.491  0.00  0.00     0.002 A 
HETATM   21  C   UNK     0      25.786  24.779  49.258  0.00  0.00     0.001 A 
ENDBRANCH   1  12
BRANCH   1  22
HETATM   22  C   UNK     0      21.585  26.002  46.995  0.00  0.00    -0.045 A 
HETATM   23  C   UNK     0      21.105  26.351  48.232  0.00  0.00     0.011 A 
HETATM   24  C   UNK     0      20.837  27.697  48.483  0.00  0.00     0.037 A 
HETATM   25  C   UNK     0      21.059  28.649  47.488  0.00  0.00     0.065 A 
HETATM   26  C   UNK     0      21.548  28.256  46.242  0.00  0.00     0.037 A 
HETATM   27  C   UNK     0      21.816  26.910  45.992  0.00  0.00     0.011 A 
BRANCH  25  28
HETATM   28  O   UNK     0      20.798  29.963  47.733  0.00  0.00    -0.361 OA
HETATM   29  H   UNK     0      21.642  30.437  47.836  0.00  0.00     0.217 HD
ENDBRANCH  25  28
ENDBRANCH   1  22
TORSDOF 4
ENDMDL
MODEL 3
REMARK VINA RESULT:      -8.1     23.861     27.451
REMARK  4 active torsions:
REMARK  status: ('A' for Active; 'I' for Inactive)
REMARK    1  A    between atoms: O_1  and  C_26 
REMARK    2  A    between atoms: C_4  and  C_5 
REMARK    3  A    between atoms: C_4  and  C_6 
REMARK    4  A    between atoms: C_4  and  C_7 
ROOT
HETATM    1  C   UNK     0      25.715  45.712  30.839  0.00  0.00     0.089 C 
ENDROOT
BRANCH   1   2
HETATM    2  C   UNK     0      24.639  46.664  31.184  0.00  0.00    -0.017 A 
HETATM    3  C   UNK     0      23.467  46.933  30.422  0.00  0.00    -0.001 A 
HETATM    4  C   UNK     0      22.735  47.894  31.122  0.00  0.00     0.042 A 
HETATM    5  C   UNK     0      22.958  46.448  29.201  0.00  0.00     0.014 A 
HETATM    6  N   UNK     0      23.444  48.192  32.264  0.00  0.00    -0.365 N 
HETATM    7  C   UNK     0      21.514  48.397  30.659  0.00  0.00     0.030 A 
HETATM    8  C   UNK     0      24.596  47.454  32.310  0.00  0.00     0.097 A 
HETATM    9  H   UNK     0      23.157  48.860  32.965  0.00  0.00     0.165 HD
HETATM   10  C   UNK     0      21.028  47.902  29.445  0.00  0.00     0.002 A 
HETATM   11  C   UNK     0      21.738  46.943  28.726  0.00  0.00     0.001 A 
ENDBRANCH   1   2
BRANCH   1  12
HETATM   12  C   UNK     0      25.440  44.207  30.921  0.00  0.00    -0.017 A 
HETATM   13  C   UNK     0      24.273  43.641  31.422  0.00  0.00    -0.001 A 
HETATM   14  C   UNK     0      24.455  42.261  31.305  0.00  0.00     0.042 A 
HETATM   15  C   UNK     0      23.065  44.122  31.967  0.00  0.00     0.014 A 
HETATM   16  N   UNK     0      25.699  42.062  30.751  0.00  0.00    -0.365 N 
HETATM   17  C   UNK     0      23.486  41.335  31.709  0.00  0.00     0.030 A 
HETATM   18  C   UNK     0      26.308  43.265  30.513  0.00  0.00     0.097 A 
HETATM   19  H   UNK     0      26.103  41.158  30.550  0.00  0.00     0.165 HD
HETATM   20  C   UNK     0      22.297  41.835  32.247  0.00  0.00     0.002 A 
HETATM   21  C   UNK     0      22.088  43.207  32.374  0.00  0.00     0.001 A 
ENDBRANCH   1  12
BRANCH   1  22
HETATM   22  C   UNK     0      26.263  46.023  29.438  0.00  0.00    -0.045 A 
HETATM   23  C   UNK     0      26.083  45.091  28.446  0.00  0.00     0.011 A 
HETATM   24  C   UNK     0      26.582  45.374  27.174  0.00  0.00     0.037 A 
HETATM   25  C   UNK     0      27.244  46.578  26.936  0.00  0.00     0.065 A 
HETATM   26  C   UNK     0      27.407  47.501  27.970  0.00  0.00     0.037 A 
HETATM   27  C   UNK     0      26.908  47.218  29.242  0.00  0.00     0.011 A 
BRANCH  25  28
HETATM   28  O   UNK     0      27.730  46.854  25.695  0.00  0.00    -0.361 OA
HETATM   29  H   UNK     0      28.587  47.305  25.786  0.00  0.00     0.217 HD
ENDBRANCH  25  28
ENDBRANCH   1  22
TORSDOF 4
ENDMDL
MODEL 4
REMARK VINA RESULT:      -7.8      2.145      3.117
REMARK  4 active torsions:
REMARK  status: ('A' for Active; 'I' for Inactive)
REMARK    1  A    between atoms: O_1  and  C_26 
REMARK    2  A    between atoms: C_4  and  C_5 
REMARK    3  A    between atoms: C_4  and  C_6 
REMARK    4  A    between atoms: C_4  and  C_7 
ROOT
HETATM    1  C   UNK     0      20.658  25.929  46.764  0.00  0.00     0.089 C 
ENDROOT
BRANCH   1   2
HETATM    2  C   UNK     0      20.186  24.696  47.427  0.00  0.00    -0.017 A 
HETATM    3  C   UNK     0      19.801  23.483  46.790  0.00  0.00    -0.001 A 
HETATM    4  C   UNK     0      19.428  22.590  47.797  0.00  0.00     0.042 A 
HETATM    5  C   UNK     0      19.734  23.059  45.448  0.00  0.00     0.014 A 
HETATM    6  N   UNK     0      19.585  23.246  48.997  0.00  0.00    -0.365 N 
HETATM    7  C   UNK     0      18.990  21.290  47.528  0.00  0.00     0.030 A 
HETATM    8  C   UNK     0      20.042  24.519  48.785  0.00  0.00     0.097 A 
HETATM    9  H   UNK     0      19.389  22.847  49.905  0.00  0.00     0.165 HD
HETATM   10  C   UNK     0      18.931  20.890  46.190  0.00  0.00     0.002 A 
HETATM   11  C   UNK     0      19.296  21.759  45.164  0.00  0.00     0.001 A 
ENDBRANCH   1   2
BRANCH   1  12
HETATM   12  C   UNK     0      21.091  27.124  47.620  0.00  0.00    -0.017 A 
HETATM   13  C   UNK     0      22.068  27.078  48.609  0.00  0.00    -0.001 A 
HETATM   14  C   UNK     0      22.133  28.375  49.121  0.00  0.00     0.042 A 
HETATM   15  C   UNK     0      22.922  26.093  49.146  0.00  0.00     0.014 A 
HETATM   16  N   UNK     0      21.210  29.129  48.433  0.00  0.00    -0.365 N 
HETATM   17  C   UNK     0      23.012  28.738  50.148  0.00  0.00     0.030 A 
HETATM   18  C   UNK     0      20.566  28.356  47.505  0.00  0.00     0.097 A 
HETATM   19  H   UNK     0      21.034  30.112  48.591  0.00  0.00     0.165 HD
HETATM   20  C   UNK     0      23.848  27.744  50.665  0.00  0.00     0.002 A 
HETATM   21  C   UNK     0      23.805  26.442  50.172  0.00  0.00     0.001 A 
ENDBRANCH   1  12
BRANCH   1  22
HETATM   22  C   UNK     0      21.799  25.599  45.791  0.00  0.00    -0.045 A 
HETATM   23  C   UNK     0      22.759  24.703  46.191  0.00  0.00     0.011 A 
HETATM   24  C   UNK     0      23.796  24.405  45.307  0.00  0.00     0.037 A 
HETATM   25  C   UNK     0      23.839  25.012  44.052  0.00  0.00     0.065 A 
HETATM   26  C   UNK     0      22.845  25.918  43.681  0.00  0.00     0.037 A 
HETATM   27  C   UNK     0      21.808  26.216  44.565  0.00  0.00     0.011 A 
BRANCH  25  28
HETATM   28  O   UNK     0      24.850  24.720  43.189  0.00  0.00    -0.361 OA
HETATM   29  H   UNK     0      24.748  23.802  42.883  0.00  0.00     0.217 HD
ENDBRANCH  25  28
ENDBRANCH   1  22
TORSDOF 4
ENDMDL
MODEL 5
REMARK VINA RESULT:      -7.6      2.477      5.927
REMARK  4 active torsions:
REMARK  status: ('A' for Active; 'I' for Inactive)
REMARK    1  A    between atoms: O_1  and  C_26 
REMARK    2  A    between atoms: C_4  and  C_5 
REMARK    3  A    between atoms: C_4  and  C_6 
REMARK    4  A    between atoms: C_4  and  C_7 
ROOT
HETATM    1  C   UNK     0      21.126  23.980  46.770  0.00  0.00     0.089 C 
ENDROOT
BRANCH   1   2
HETATM    2  C   UNK     0      20.852  25.100  47.694  0.00  0.00    -0.017 A 
HETATM    3  C   UNK     0      21.768  25.689  48.610  0.00  0.00    -0.001 A 
HETATM    4  C   UNK     0      21.085  26.709  49.275  0.00  0.00     0.042 A 
HETATM    5  C   UNK     0      23.118  25.450  48.938  0.00  0.00     0.014 A 
HETATM    6  N   UNK     0      19.803  26.731  48.775  0.00  0.00    -0.365 N 
HETATM    7  C   UNK     0      21.687  27.506  50.255  0.00  0.00     0.030 A 
HETATM    8  C   UNK     0      19.652  25.762  47.819  0.00  0.00     0.097 A 
HETATM    9  H   UNK     0      19.078  27.369  49.071  0.00  0.00     0.165 HD
HETATM   10  C   UNK     0      23.026  27.251  50.564  0.00  0.00     0.002 A 
HETATM   11  C   UNK     0      23.733  26.239  49.917  0.00  0.00     0.001 A 
ENDBRANCH   1   2
BRANCH   1  12
HETATM   12  C   UNK     0      19.960  23.308  46.039  0.00  0.00    -0.017 A 
HETATM   13  C   UNK     0      19.251  22.211  46.517  0.00  0.00    -0.001 A 
HETATM   14  C   UNK     0      18.292  21.939  45.539  0.00  0.00     0.042 A 
HETATM   15  C   UNK     0      19.295  21.399  47.668  0.00  0.00     0.014 A 
HETATM   16  N   UNK     0      18.463  22.865  44.536  0.00  0.00    -0.365 N 
HETATM   17  C   UNK     0      17.371  20.892  45.655  0.00  0.00     0.030 A 
HETATM   18  C   UNK     0      19.494  23.712  44.844  0.00  0.00     0.097 A 
HETATM   19  H   UNK     0      17.907  22.913  43.692  0.00  0.00     0.165 HD
HETATM   20  C   UNK     0      17.434  20.100  46.805  0.00  0.00     0.002 A 
HETATM   21  C   UNK     0      18.380  20.349  47.798  0.00  0.00     0.001 A 
ENDBRANCH   1  12
BRANCH   1  22
HETATM   22  C   UNK     0      22.167  24.405  45.723  0.00  0.00    -0.045 A 
HETATM   23  C   UNK     0      23.357  23.724  45.673  0.00  0.00     0.011 A 
HETATM   24  C   UNK     0      24.302  24.111  44.722  0.00  0.00     0.037 A 
HETATM   25  C   UNK     0      24.025  25.167  43.854  0.00  0.00     0.065 A 
HETATM   26  C   UNK     0      22.804  25.836  43.935  0.00  0.00     0.037 A 
HETATM   27  C   UNK     0      21.859  25.449  44.886  0.00  0.00     0.011 A 
BRANCH  25  28
HETATM   28  O   UNK     0      24.947  25.544  42.926  0.00  0.00    -0.361 OA
HETATM   29  H   UNK     0      24.588  25.372  42.038  0.00  0.00     0.217 HD
ENDBRANCH  25  28
ENDBRANCH   1  22
TORSDOF 4
ENDMDL
MODEL 6
REMARK VINA RESULT:      -7.6      2.672      4.221
REMARK  4 active torsions:
REMARK  status: ('A' for Active; 'I' for Inactive)
REMARK    1  A    between atoms: O_1  and  C_26 
REMARK    2  A    between atoms: C_4  and  C_5 
REMARK    3  A    between atoms: C_4  and  C_6 
REMARK    4  A    between atoms: C_4  and  C_7 
ROOT
HETATM    1  C   UNK     0      20.693  26.076  46.900  0.00  0.00     0.089 C 
ENDROOT
BRANCH   1   2
HETATM    2  C   UNK     0      20.234  24.819  47.526  0.00  0.00    -0.017 A 
HETATM    3  C   UNK     0      19.648  24.678  48.816  0.00  0.00    -0.001 A 
HETATM    4  C   UNK     0      19.370  23.321  48.994  0.00  0.00     0.042 A 
HETATM    5  C   UNK     0      19.329  25.578  49.852  0.00  0.00     0.014 A 
HETATM    6  N   UNK     0      19.774  22.672  47.850  0.00  0.00    -0.365 N 
HETATM    7  C   UNK     0      18.785  22.818  50.161  0.00  0.00     0.030 A 
HETATM    8  C   UNK     0      20.298  23.568  46.957  0.00  0.00     0.097 A 
HETATM    9  H   UNK     0      19.697  21.676  47.692  0.00  0.00     0.165 HD
HETATM   10  C   UNK     0      18.476  23.728  51.176  0.00  0.00     0.002 A 
HETATM   11  C   UNK     0      18.743  25.088  51.026  0.00  0.00     0.001 A 
ENDBRANCH   1   2
BRANCH   1  12
HETATM   12  C   UNK     0      21.230  27.204  47.787  0.00  0.00    -0.017 A 
HETATM   13  C   UNK     0      22.221  27.052  48.750  0.00  0.00    -0.001 A 
HETATM   14  C   UNK     0      22.392  28.321  49.305  0.00  0.00     0.042 A 
HETATM   15  C   UNK     0      23.011  25.989  49.233  0.00  0.00     0.014 A 
HETATM   16  N   UNK     0      21.512  29.165  48.665  0.00  0.00    -0.365 N 
HETATM   17  C   UNK     0      23.315  28.582  50.324  0.00  0.00     0.030 A 
HETATM   18  C   UNK     0      20.794  28.475  47.726  0.00  0.00     0.097 A 
HETATM   19  H   UNK     0      21.412  30.152  48.861  0.00  0.00     0.165 HD
HETATM   20  C   UNK     0      24.087  27.513  50.787  0.00  0.00     0.002 A 
HETATM   21  C   UNK     0      23.939  26.235  50.250  0.00  0.00     0.001 A 
ENDBRANCH   1  12
BRANCH   1  22
HETATM   22  C   UNK     0      21.744  25.773  45.822  0.00  0.00    -0.045 A 
HETATM   23  C   UNK     0      22.736  24.870  46.114  0.00  0.00     0.011 A 
HETATM   24  C   UNK     0      23.691  24.596  45.135  0.00  0.00     0.037 A 
HETATM   25  C   UNK     0      23.623  25.234  43.896  0.00  0.00     0.065 A 
HETATM   26  C   UNK     0      22.600  26.146  43.636  0.00  0.00     0.037 A 
HETATM   27  C   UNK     0      21.645  26.420  44.616  0.00  0.00     0.011 A 
BRANCH  25  28
HETATM   28  O   UNK     0      24.554  24.966  42.941  0.00  0.00    -0.361 OA
HETATM   29  H   UNK     0      25.322  24.540  43.361  0.00  0.00     0.217 HD
ENDBRANCH  25  28
ENDBRANCH   1  22
TORSDOF 4
ENDMDL
MODEL 7
REMARK VINA RESULT:      -7.4      2.458      5.611
REMARK  4 active torsions:
REMARK  status: ('A' for Active; 'I' for Inactive)
REMARK    1  A    between atoms: O_1  and  C_26 
REMARK    2  A    between atoms: C_4  and  C_5 
REMARK    3  A    between atoms: C_4  and  C_6 
REMARK    4  A    between atoms: C_4  and  C_7 
ROOT
HETATM    1  C   UNK     0      20.805  23.667  46.525  0.00  0.00     0.089 C 
ENDROOT
BRANCH   1   2
HETATM    2  C   UNK     0      20.367  24.717  47.467  0.00  0.00    -0.017 A 
HETATM    3  C   UNK     0      19.807  24.518  48.761  0.00  0.00    -0.001 A 
HETATM    4  C   UNK     0      19.544  25.782  49.293  0.00  0.00     0.042 A 
HETATM    5  C   UNK     0      19.498  23.379  49.531  0.00  0.00     0.014 A 
HETATM    6  N   UNK     0      19.934  26.707  48.351  0.00  0.00    -0.365 N 
HETATM    7  C   UNK     0      18.985  25.965  50.563  0.00  0.00     0.030 A 
HETATM    8  C   UNK     0      20.432  26.074  47.244  0.00  0.00     0.097 A 
HETATM    9  H   UNK     0      19.860  27.709  48.460  0.00  0.00     0.165 HD
HETATM   10  C   UNK     0      18.687  24.821  51.309  0.00  0.00     0.002 A 
HETATM   11  C   UNK     0      18.938  23.547  50.803  0.00  0.00     0.001 A 
ENDBRANCH   1   2
BRANCH   1  12
HETATM   12  C   UNK     0      19.780  23.033  45.580  0.00  0.00    -0.017 A 
HETATM   13  C   UNK     0      19.299  21.732  45.689  0.00  0.00    -0.001 A 
HETATM   14  C   UNK     0      18.398  21.584  44.633  0.00  0.00     0.042 A 
HETATM   15  C   UNK     0      19.512  20.643  46.557  0.00  0.00     0.014 A 
HETATM   16  N   UNK     0      18.376  22.778  43.948  0.00  0.00    -0.365 N 
HETATM   17  C   UNK     0      17.696  20.396  44.400  0.00  0.00     0.030 A 
HETATM   18  C   UNK     0      19.230  23.674  44.533  0.00  0.00     0.097 A 
HETATM   19  H   UNK     0      17.811  22.965  43.131  0.00  0.00     0.165 HD
HETATM   20  C   UNK     0      17.923  19.329  45.274  0.00  0.00     0.002 A 
HETATM   21  C   UNK     0      18.816  19.449  46.338  0.00  0.00     0.001 A 
ENDBRANCH   1  12
BRANCH   1  22
HETATM   22  C   UNK     0      21.984  24.175  45.682  0.00  0.00    -0.045 A 
HETATM   23  C   UNK     0      23.240  23.699  45.963  0.00  0.00     0.011 A 
HETATM   24  C   UNK     0      24.310  24.162  45.197  0.00  0.00     0.037 A 
HETATM   25  C   UNK     0      24.089  25.085  44.175  0.00  0.00     0.065 A 
HETATM   26  C   UNK     0      22.797  25.546  43.919  0.00  0.00     0.037 A 
HETATM   27  C   UNK     0      21.727  25.084  44.685  0.00  0.00     0.011 A 
BRANCH  25  28
HETATM   28  O   UNK     0      25.133  25.536  43.428  0.00  0.00    -0.361 OA
HETATM   29  H   UNK     0      25.014  25.237  42.509  0.00  0.00     0.217 HD
ENDBRANCH  25  28
ENDBRANCH   1  22
TORSDOF 4
ENDMDL
MODEL 8
REMARK VINA RESULT:      -7.4      1.162      5.721
REMARK  4 active torsions:
REMARK  status: ('A' for Active; 'I' for Inactive)
REMARK    1  A    between atoms: O_1  and  C_26 
REMARK    2  A    between atoms: C_4  and  C_5 
REMARK    3  A    between atoms: C_4  and  C_6 
REMARK    4  A    between atoms: C_4  and  C_7 
ROOT
HETATM    1  C   UNK     0      20.884  24.035  46.781  0.00  0.00     0.089 C 
ENDROOT
BRANCH   1   2
HETATM    2  C   UNK     0      21.144  25.334  46.126  0.00  0.00    -0.017 A 
HETATM    3  C   UNK     0      21.326  26.589  46.772  0.00  0.00    -0.001 A 
HETATM    4  C   UNK     0      21.544  27.538  45.771  0.00  0.00     0.042 A 
HETATM    5  C   UNK     0      21.327  27.009  48.118  0.00  0.00     0.014 A 
HETATM    6  N   UNK     0      21.494  26.874  44.566  0.00  0.00    -0.365 N 
HETATM    7  C   UNK     0      21.764  28.891  46.049  0.00  0.00     0.030 A 
HETATM    8  C   UNK     0      21.252  25.542  44.770  0.00  0.00     0.097 A 
HETATM    9  H   UNK     0      21.616  27.308  43.662  0.00  0.00     0.165 HD
HETATM   10  C   UNK     0      21.760  29.286  47.391  0.00  0.00     0.002 A 
HETATM   11  C   UNK     0      21.544  28.361  48.410  0.00  0.00     0.001 A 
ENDBRANCH   1   2
BRANCH   1  12
HETATM   12  C   UNK     0      20.269  22.893  45.965  0.00  0.00    -0.017 A 
HETATM   13  C   UNK     0      19.324  21.994  46.448  0.00  0.00    -0.001 A 
HETATM   14  C   UNK     0      19.051  21.139  45.379  0.00  0.00     0.042 A 
HETATM   15  C   UNK     0      18.652  21.789  47.669  0.00  0.00     0.014 A 
HETATM   16  N   UNK     0      19.829  21.552  44.321  0.00  0.00    -0.365 N 
HETATM   17  C   UNK     0      18.136  20.084  45.470  0.00  0.00     0.030 A 
HETATM   18  C   UNK     0      20.582  22.637  44.683  0.00  0.00     0.097 A 
HETATM   19  H   UNK     0      19.842  21.117  43.408  0.00  0.00     0.165 HD
HETATM   20  C   UNK     0      17.482  19.899  46.691  0.00  0.00     0.002 A 
HETATM   21  C   UNK     0      17.734  20.738  47.775  0.00  0.00     0.001 A 
ENDBRANCH   1  12
BRANCH   1  22
HETATM   22  C   UNK     0      22.169  23.514  47.442  0.00  0.00    -0.045 A 
HETATM   23  C   UNK     0      22.059  22.805  48.612  0.00  0.00     0.011 A 
HETATM   24  C   UNK     0      23.226  22.333  49.212  0.00  0.00     0.037 A 
HETATM   25  C   UNK     0      24.465  22.585  48.623  0.00  0.00     0.065 A 
HETATM   26  C   UNK     0      24.537  23.309  47.432  0.00  0.00     0.037 A 
HETATM   27  C   UNK     0      23.369  23.781  46.832  0.00  0.00     0.011 A 
BRANCH  25  28
HETATM   28  O   UNK     0      25.603  22.123  49.208  0.00  0.00    -0.361 OA
HETATM   29  H   UNK     0      25.366  21.638  50.018  0.00  0.00     0.217 HD
ENDBRANCH  25  28
ENDBRANCH   1  22
TORSDOF 4
ENDMDL
MODEL 9
REMARK VINA RESULT:      -7.4      2.620      5.654
REMARK  4 active torsions:
REMARK  status: ('A' for Active; 'I' for Inactive)
REMARK    1  A    between atoms: O_1  and  C_26 
REMARK    2  A    between atoms: C_4  and  C_5 
REMARK    3  A    between atoms: C_4  and  C_6 
REMARK    4  A    between atoms: C_4  and  C_7 
ROOT
HETATM    1  C   UNK     0      21.648  24.029  47.418  0.00  0.00     0.089 C 
ENDROOT
BRANCH   1   2
HETATM    2  C   UNK     0      22.983  24.060  46.788  0.00  0.00    -0.017 A 
HETATM    3  C   UNK     0      24.218  24.360  47.430  0.00  0.00    -0.001 A 
HETATM    4  C   UNK     0      25.218  24.273  46.458  0.00  0.00     0.042 A 
HETATM    5  C   UNK     0      24.581  24.699  48.749  0.00  0.00     0.014 A 
HETATM    6  N   UNK     0      24.603  23.932  45.275  0.00  0.00    -0.365 N 
HETATM    7  C   UNK     0      26.567  24.508  46.741  0.00  0.00     0.030 A 
HETATM    8  C   UNK     0      23.253  23.801  45.463  0.00  0.00     0.097 A 
HETATM    9  H   UNK     0      25.079  23.799  44.393  0.00  0.00     0.165 HD
HETATM   10  C   UNK     0      26.905  24.843  48.056  0.00  0.00     0.002 A 
HETATM   11  C   UNK     0      25.928  24.938  49.045  0.00  0.00     0.001 A 
ENDBRANCH   1   2
BRANCH   1  12
HETATM   12  C   UNK     0      21.014  25.338  47.900  0.00  0.00    -0.017 A 
HETATM   13  C   UNK     0      21.239  26.585  47.328  0.00  0.00    -0.001 A 
HETATM   14  C   UNK     0      20.469  27.477  48.077  0.00  0.00     0.042 A 
HETATM   15  C   UNK     0      22.006  27.086  46.257  0.00  0.00     0.014 A 
HETATM   16  N   UNK     0      19.828  26.742  49.048  0.00  0.00    -0.365 N 
HETATM   17  C   UNK     0      20.427  28.850  47.808  0.00  0.00     0.030 A 
HETATM   18  C   UNK     0      20.164  25.419  48.939  0.00  0.00     0.097 A 
HETATM   19  H   UNK     0      19.199  27.124  49.742  0.00  0.00     0.165 HD
HETATM   20  C   UNK     0      21.196  29.323  46.741  0.00  0.00     0.002 A 
HETATM   21  C   UNK     0      21.973  28.456  45.975  0.00  0.00     0.001 A 
ENDBRANCH   1  12
BRANCH   1  22
HETATM   22  C   UNK     0      20.646  23.325  46.491  0.00  0.00    -0.045 A 
HETATM   23  C   UNK     0      20.226  23.985  45.363  0.00  0.00     0.011 A 
HETATM   24  C   UNK     0      19.315  23.345  44.522  0.00  0.00     0.037 A 
HETATM   25  C   UNK     0      18.854  22.067  44.837  0.00  0.00     0.065 A 
HETATM   26  C   UNK     0      19.304  21.428  45.993  0.00  0.00     0.037 A 
HETATM   27  C   UNK     0      20.215  22.068  46.833  0.00  0.00     0.011 A 
BRANCH  25  28
HETATM   28  O   UNK     0      17.966  21.443  44.016  0.00  0.00    -0.361 OA
HETATM   29  H   UNK     0      17.949  20.494  44.234  0.00  0.00     0.217 HD
ENDBRANCH  25  28
ENDBRANCH   1  22
TORSDOF 4
ENDMDL
