MODEL 1
REMARK VINA RESULT:      -7.1      0.000      0.000
REMARK  2 active torsions:
REMARK  status: ('A' for Active; 'I' for Inactive)
REMARK    1  A    between atoms: O_2  and  C_9 
REMARK    2  A    between atoms: O_3  and  C_10 
ROOT
HETATM    1  O   UNK     0      -2.174  -1.974  17.931  0.00  0.00    -0.275 OA
HETATM    2  O   UNK     0      -2.167  -0.353  16.314  0.00  0.00    -0.260 OA
HETATM    3  C   UNK     0      -3.573  -3.943  17.627  0.00  0.00     0.001 A 
HETATM    4  C   UNK     0      -2.660  -3.217  18.387  0.00  0.00     0.092 A 
HETATM    5  C   UNK     0      -4.031  -5.170  18.113  0.00  0.00     0.053 A 
HETATM    6  C   UNK     0      -2.193  -3.682  19.615  0.00  0.00     0.077 A 
HETATM    7  C   UNK     0      -3.572  -5.650  19.343  0.00  0.00     0.099 A 
HETATM    8  C   UNK     0      -2.655  -4.908  20.092  0.00  0.00     0.101 A 
HETATM    9  C   UNK     0      -4.017  -3.397  16.355  0.00  0.00     0.020 A 
HETATM   10  C   UNK     0      -3.553  -2.219  15.931  0.00  0.00     0.083 A 
HETATM   11  C   UNK     0      -2.585  -1.432  16.718  0.00  0.00     0.288 A 
ENDROOT
BRANCH   7  12
HETATM   12  O   UNK     0      -4.026  -6.849  19.803  0.00  0.00    -0.358 OA
HETATM   13  H   UNK     0      -4.714  -7.179  19.200  0.00  0.00     0.217 HD
ENDBRANCH   7  12
BRANCH   8  14
HETATM   14  O   UNK     0      -2.205  -5.372  21.291  0.00  0.00    -0.358 OA
HETATM   15  H   UNK     0      -1.985  -6.315  21.190  0.00  0.00     0.217 HD
ENDBRANCH   8  14
TORSDOF 2
ENDMDL
MODEL 2
REMARK VINA RESULT:      -7.0      8.522      9.940
REMARK  2 active torsions:
REMARK  status: ('A' for Active; 'I' for Inactive)
REMARK    1  A    between atoms: O_2  and  C_9 
REMARK    2  A    between atoms: O_3  and  C_10 
ROOT
HETATM    1  O   UNK     0      -5.547   1.879  27.291  0.00  0.00    -0.275 OA
HETATM    2  O   UNK     0      -4.537   1.951  29.345  0.00  0.00    -0.260 OA
HETATM    3  C   UNK     0      -4.442   0.702  25.470  0.00  0.00     0.001 A 
HETATM    4  C   UNK     0      -5.516   1.447  25.950  0.00  0.00     0.092 A 
HETATM    5  C   UNK     0      -4.447   0.292  24.134  0.00  0.00     0.053 A 
HETATM    6  C   UNK     0      -6.591   1.793  25.134  0.00  0.00     0.077 A 
HETATM    7  C   UNK     0      -5.519   0.631  23.304  0.00  0.00     0.099 A 
HETATM    8  C   UNK     0      -6.588   1.380  23.803  0.00  0.00     0.101 A 
HETATM    9  C   UNK     0      -3.354   0.377  26.377  0.00  0.00     0.020 A 
HETATM   10  C   UNK     0      -3.391   0.791  27.646  0.00  0.00     0.083 A 
HETATM   11  C   UNK     0      -4.517   1.580  28.178  0.00  0.00     0.288 A 
ENDROOT
BRANCH   7  12
HETATM   12  O   UNK     0      -5.511   0.223  22.003  0.00  0.00    -0.358 OA
HETATM   13  H   UNK     0      -5.398   0.999  21.429  0.00  0.00     0.217 HD
ENDBRANCH   7  12
BRANCH   8  14
HETATM   14  O   UNK     0      -7.635   1.713  22.996  0.00  0.00    -0.358 OA
HETATM   15  H   UNK     0      -8.269   0.974  22.998  0.00  0.00     0.217 HD
ENDBRANCH   8  14
TORSDOF 2
ENDMDL
MODEL 3
REMARK VINA RESULT:      -6.9      6.561      7.630
REMARK  2 active torsions:
REMARK  status: ('A' for Active; 'I' for Inactive)
REMARK    1  A    between atoms: O_2  and  C_9 
REMARK    2  A    between atoms: O_3  and  C_10 
ROOT
HETATM    1  O   UNK     0      -5.934   0.509  22.678  0.00  0.00    -0.275 OA
HETATM    2  O   UNK     0      -7.868   1.734  22.764  0.00  0.00    -0.260 OA
HETATM    3  C   UNK     0      -4.506   0.415  24.646  0.00  0.00     0.001 A 
HETATM    4  C   UNK     0      -4.771   0.052  23.328  0.00  0.00     0.092 A 
HETATM    5  C   UNK     0      -3.342  -0.058  25.256  0.00  0.00     0.053 A 
HETATM    6  C   UNK     0      -3.907  -0.768  22.606  0.00  0.00     0.077 A 
HETATM    7  C   UNK     0      -2.465  -0.882  24.544  0.00  0.00     0.099 A 
HETATM    8  C   UNK     0      -2.747  -1.236  23.222  0.00  0.00     0.101 A 
HETATM    9  C   UNK     0      -5.451   1.275  25.340  0.00  0.00     0.020 A 
HETATM   10  C   UNK     0      -6.551   1.704  24.716  0.00  0.00     0.083 A 
HETATM   11  C   UNK     0      -6.854   1.333  23.321  0.00  0.00     0.288 A 
ENDROOT
BRANCH   7  12
HETATM   12  O   UNK     0      -1.334  -1.337  25.153  0.00  0.00    -0.358 OA
HETATM   13  H   UNK     0      -0.817  -1.856  24.514  0.00  0.00     0.217 HD
ENDBRANCH   7  12
BRANCH   8  14
HETATM   14  O   UNK     0      -1.896  -2.039  22.525  0.00  0.00    -0.358 OA
HETATM   15  H   UNK     0      -1.872  -2.910  22.960  0.00  0.00     0.217 HD
ENDBRANCH   8  14
TORSDOF 2
ENDMDL
MODEL 4
REMARK VINA RESULT:      -6.8      6.935      8.071
REMARK  2 active torsions:
REMARK  status: ('A' for Active; 'I' for Inactive)
REMARK    1  A    between atoms: O_2  and  C_9 
REMARK    2  A    between atoms: O_3  and  C_10 
ROOT
HETATM    1  O   UNK     0      -4.046   0.749  26.325  0.00  0.00    -0.275 OA
HETATM    2  O   UNK     0      -5.163   2.205  27.695  0.00  0.00    -0.260 OA
HETATM    3  C   UNK     0      -4.855   0.402  24.057  0.00  0.00     0.001 A 
HETATM    4  C   UNK     0      -3.938   0.124  25.066  0.00  0.00     0.092 A 
HETATM    5  C   UNK     0      -4.715  -0.237  22.822  0.00  0.00     0.053 A 
HETATM    6  C   UNK     0      -2.888  -0.772  24.877  0.00  0.00     0.077 A 
HETATM    7  C   UNK     0      -3.666  -1.138  22.617  0.00  0.00     0.099 A 
HETATM    8  C   UNK     0      -2.755  -1.405  23.642  0.00  0.00     0.101 A 
HETATM    9  C   UNK     0      -5.926   1.348  24.323  0.00  0.00     0.020 A 
HETATM   10  C   UNK     0      -6.022   1.935  25.519  0.00  0.00     0.083 A 
HETATM   11  C   UNK     0      -5.062   1.657  26.604  0.00  0.00     0.288 A 
ENDROOT
BRANCH   7  12
HETATM   12  O   UNK     0      -3.542  -1.753  21.407  0.00  0.00    -0.358 OA
HETATM   13  H   UNK     0      -4.424  -2.010  21.090  0.00  0.00     0.217 HD
ENDBRANCH   7  12
BRANCH   8  14
HETATM   14  O   UNK     0      -1.733  -2.283  23.447  0.00  0.00    -0.358 OA
HETATM   15  H   UNK     0      -1.066  -1.855  22.881  0.00  0.00     0.217 HD
ENDBRANCH   8  14
TORSDOF 2
ENDMDL
MODEL 5
REMARK VINA RESULT:      -6.6      7.176      8.381
REMARK  2 active torsions:
REMARK  status: ('A' for Active; 'I' for Inactive)
REMARK    1  A    between atoms: O_2  and  C_9 
REMARK    2  A    between atoms: O_3  and  C_10 
ROOT
HETATM    1  O   UNK     0      -2.753  -0.886  24.813  0.00  0.00    -0.275 OA
HETATM    2  O   UNK     0      -1.562  -2.373  23.542  0.00  0.00    -0.260 OA
HETATM    3  C   UNK     0      -4.697   0.209  23.840  0.00  0.00     0.001 A 
HETATM    4  C   UNK     0      -3.838   0.008  24.917  0.00  0.00     0.092 A 
HETATM    5  C   UNK     0      -5.761   1.103  23.983  0.00  0.00     0.053 A 
HETATM    6  C   UNK     0      -4.013   0.672  26.129  0.00  0.00     0.077 A 
HETATM    7  C   UNK     0      -5.949   1.778  25.193  0.00  0.00     0.099 A 
HETATM    8  C   UNK     0      -5.077   1.562  26.263  0.00  0.00     0.101 A 
HETATM    9  C   UNK     0      -4.455  -0.518  22.605  0.00  0.00     0.020 A 
HETATM   10  C   UNK     0      -3.424  -1.362  22.514  0.00  0.00     0.083 A 
HETATM   11  C   UNK     0      -2.501  -1.594  23.641  0.00  0.00     0.288 A 
ENDROOT
BRANCH   7  12
HETATM   12  O   UNK     0      -6.992   2.646  25.317  0.00  0.00    -0.358 OA
HETATM   13  H   UNK     0      -6.702   3.418  25.831  0.00  0.00     0.217 HD
ENDBRANCH   7  12
BRANCH   8  14
HETATM   14  O   UNK     0      -5.258   2.218  27.444  0.00  0.00    -0.358 OA
HETATM   15  H   UNK     0      -4.421   2.190  27.940  0.00  0.00     0.217 HD
ENDBRANCH   8  14
TORSDOF 2
ENDMDL
MODEL 6
REMARK VINA RESULT:      -6.4     20.408     20.914
REMARK  2 active torsions:
REMARK  status: ('A' for Active; 'I' for Inactive)
REMARK    1  A    between atoms: O_2  and  C_9 
REMARK    2  A    between atoms: O_3  and  C_10 
ROOT
HETATM    1  O   UNK     0      13.688  -8.856   8.859  0.00  0.00    -0.275 OA
HETATM    2  O   UNK     0      15.502  -7.957   9.930  0.00  0.00    -0.260 OA
HETATM    3  C   UNK     0      13.945  -9.678   6.583  0.00  0.00     0.001 A 
HETATM    4  C   UNK     0      13.148  -9.452   7.702  0.00  0.00     0.092 A 
HETATM    5  C   UNK     0      13.373 -10.272   5.455  0.00  0.00     0.053 A 
HETATM    6  C   UNK     0      11.799  -9.801   7.723  0.00  0.00     0.077 A 
HETATM    7  C   UNK     0      12.022 -10.627   5.462  0.00  0.00     0.099 A 
HETATM    8  C   UNK     0      11.237 -10.392   6.594  0.00  0.00     0.101 A 
HETATM    9  C   UNK     0      15.345  -9.289   6.630  0.00  0.00     0.020 A 
HETATM   10  C   UNK     0      15.848  -8.724   7.730  0.00  0.00     0.083 A 
HETATM   11  C   UNK     0      15.024  -8.475   8.928  0.00  0.00     0.288 A 
ENDROOT
BRANCH   7  12
HETATM   12  O   UNK     0      11.478 -11.206   4.354  0.00  0.00    -0.358 OA
HETATM   13  H   UNK     0      10.950 -10.544   3.878  0.00  0.00     0.217 HD
ENDBRANCH   7  12
BRANCH   8  14
HETATM   14  O   UNK     0       9.919 -10.737   6.604  0.00  0.00    -0.358 OA
HETATM   15  H   UNK     0       9.483 -10.305   5.849  0.00  0.00     0.217 HD
ENDBRANCH   8  14
TORSDOF 2
ENDMDL
MODEL 7
REMARK VINA RESULT:      -6.3      2.128      3.916
REMARK  2 active torsions:
REMARK  status: ('A' for Active; 'I' for Inactive)
REMARK    1  A    between atoms: O_2  and  C_9 
REMARK    2  A    between atoms: O_3  and  C_10 
ROOT
HETATM    1  O   UNK     0      -2.494  -2.094  19.675  0.00  0.00    -0.275 OA
HETATM    2  O   UNK     0      -1.780  -1.548  21.782  0.00  0.00    -0.260 OA
HETATM    3  C   UNK     0      -3.576  -4.243  19.313  0.00  0.00     0.001 A 
HETATM    4  C   UNK     0      -3.115  -3.025  18.820  0.00  0.00     0.092 A 
HETATM    5  C   UNK     0      -4.187  -5.140  18.433  0.00  0.00     0.053 A 
HETATM    6  C   UNK     0      -3.248  -2.681  17.476  0.00  0.00     0.077 A 
HETATM    7  C   UNK     0      -4.327  -4.808  17.083  0.00  0.00     0.099 A 
HETATM    8  C   UNK     0      -3.858  -3.582  16.605  0.00  0.00     0.101 A 
HETATM    9  C   UNK     0      -3.405  -4.537  20.726  0.00  0.00     0.020 A 
HETATM   10  C   UNK     0      -2.814  -3.649  21.530  0.00  0.00     0.083 A 
HETATM   11  C   UNK     0      -2.319  -2.352  21.031  0.00  0.00     0.288 A 
ENDROOT
BRANCH   7  12
HETATM   12  O   UNK     0      -4.926  -5.693  16.237  0.00  0.00    -0.358 OA
HETATM   13  H   UNK     0      -5.661  -5.249  15.782  0.00  0.00     0.217 HD
ENDBRANCH   7  12
BRANCH   8  14
HETATM   14  O   UNK     0      -3.993  -3.255  15.290  0.00  0.00    -0.358 OA
HETATM   15  H   UNK     0      -3.348  -3.775  14.778  0.00  0.00     0.217 HD
ENDBRANCH   8  14
TORSDOF 2
ENDMDL
MODEL 8
REMARK VINA RESULT:      -6.2      1.514      2.109
REMARK  2 active torsions:
REMARK  status: ('A' for Active; 'I' for Inactive)
REMARK    1  A    between atoms: O_2  and  C_9 
REMARK    2  A    between atoms: O_3  and  C_10 
ROOT
HETATM    1  O   UNK     0      -3.303  -2.006  17.877  0.00  0.00    -0.275 OA
HETATM    2  O   UNK     0      -4.394  -1.661  15.893  0.00  0.00    -0.260 OA
HETATM    3  C   UNK     0      -3.088  -4.276  18.729  0.00  0.00     0.001 A 
HETATM    4  C   UNK     0      -2.850  -2.910  18.859  0.00  0.00     0.092 A 
HETATM    5  C   UNK     0      -2.624  -5.140  19.724  0.00  0.00     0.053 A 
HETATM    6  C   UNK     0      -2.163  -2.386  19.952  0.00  0.00     0.077 A 
HETATM    7  C   UNK     0      -1.932  -4.629  20.827  0.00  0.00     0.099 A 
HETATM    8  C   UNK     0      -1.703  -3.255  20.940  0.00  0.00     0.101 A 
HETATM    9  C   UNK     0      -3.812  -4.753  17.563  0.00  0.00     0.020 A 
HETATM   10  C   UNK     0      -4.238  -3.890  16.638  0.00  0.00     0.083 A 
HETATM   11  C   UNK     0      -3.998  -2.439  16.752  0.00  0.00     0.288 A 
ENDROOT
BRANCH   7  12
HETATM   12  O   UNK     0      -1.484  -5.484  21.788  0.00  0.00    -0.358 OA
HETATM   13  H   UNK     0      -2.120  -5.494  22.524  0.00  0.00     0.217 HD
ENDBRANCH   7  12
BRANCH   8  14
HETATM   14  O   UNK     0      -1.030  -2.754  22.013  0.00  0.00    -0.358 OA
HETATM   15  H   UNK     0      -0.264  -2.250  21.685  0.00  0.00     0.217 HD
ENDBRANCH   8  14
TORSDOF 2
ENDMDL
MODEL 9
REMARK VINA RESULT:      -6.2      3.167      3.978
REMARK  2 active torsions:
REMARK  status: ('A' for Active; 'I' for Inactive)
REMARK    1  A    between atoms: O_2  and  C_9 
REMARK    2  A    between atoms: O_3  and  C_10 
ROOT
HETATM    1  O   UNK     0      -1.790  -4.179  21.980  0.00  0.00    -0.275 OA
HETATM    2  O   UNK     0       0.282  -3.261  22.309  0.00  0.00    -0.260 OA
HETATM    3  C   UNK     0      -2.469  -4.788  19.724  0.00  0.00     0.001 A 
HETATM    4  C   UNK     0      -2.743  -4.708  21.087  0.00  0.00     0.092 A 
HETATM    5  C   UNK     0      -3.440  -5.319  18.871  0.00  0.00     0.053 A 
HETATM    6  C   UNK     0      -3.956  -5.142  21.618  0.00  0.00     0.077 A 
HETATM    7  C   UNK     0      -4.661  -5.759  19.389  0.00  0.00     0.099 A 
HETATM    8  C   UNK     0      -4.919  -5.670  20.760  0.00  0.00     0.101 A 
HETATM    9  C   UNK     0      -1.183  -4.317  19.239  0.00  0.00     0.020 A 
HETATM   10  C   UNK     0      -0.286  -3.816  20.092  0.00  0.00     0.083 A 
HETATM   11  C   UNK     0      -0.552  -3.721  21.539  0.00  0.00     0.288 A 
ENDROOT
BRANCH   7  12
HETATM   12  O   UNK     0      -5.598  -6.275  18.544  0.00  0.00    -0.358 OA
HETATM   13  H   UNK     0      -6.470  -5.916  18.780  0.00  0.00     0.217 HD
ENDBRANCH   7  12
BRANCH   8  14
HETATM   14  O   UNK     0      -6.108  -6.097  21.268  0.00  0.00    -0.358 OA
HETATM   15  H   UNK     0      -6.564  -6.618  20.584  0.00  0.00     0.217 HD
ENDBRANCH   8  14
TORSDOF 2
ENDMDL
