MODEL 1
REMARK VINA RESULT:      -8.3      0.000      0.000
REMARK  12 active torsions:
REMARK  status: ('A' for Active; 'I' for Inactive)
REMARK    1  A    between atoms: O_2  and  C_17 
REMARK    2  A    between atoms: O_2  and  C_19 
REMARK    3  A    between atoms: O_3  and  C_13 
REMARK    4  A    between atoms: O_4  and  C_14 
REMARK    5  A    between atoms: O_5  and  C_15 
REMARK    6  A    between atoms: O_6  and  C_18 
REMARK    7  A    between atoms: O_9  and  C_25 
REMARK    8  A    between atoms: O_10  and  C_30 
REMARK    9  A    between atoms: O_11  and  C_31 
REMARK   10  A    between atoms: O_12  and  C_33 
REMARK   11  A    between atoms: C_16  and  C_18 
REMARK   12  A    between atoms: C_20  and  C_24 
ROOT
HETATM    1  O   UNK     0      -3.426  -2.321  20.784  0.00  0.00    -0.306 OA
HETATM    2  O   UNK     0      -0.831  -4.514  23.034  0.00  0.00    -0.284 OA
HETATM    3  C   UNK     0      -1.886  -4.179  20.941  0.00  0.00     0.157 A 
HETATM    4  C   UNK     0      -2.760  -3.416  20.258  0.00  0.00     0.124 A 
HETATM    5  C   UNK     0      -1.614  -3.856  22.363  0.00  0.00     0.223 A 
HETATM    6  C   UNK     0      -2.336  -2.702  22.919  0.00  0.00     0.084 A 
HETATM    7  C   UNK     0      -3.208  -1.991  22.097  0.00  0.00     0.096 A 
HETATM    8  C   UNK     0      -2.152  -2.318  24.250  0.00  0.00     0.085 A 
HETATM    9  C   UNK     0      -3.902  -0.891  22.600  0.00  0.00     0.075 A 
HETATM   10  C   UNK     0      -2.848  -1.217  24.751  0.00  0.00     0.074 A 
HETATM   11  C   UNK     0      -3.721  -0.505  23.929  0.00  0.00     0.071 A 
ENDROOT
BRANCH   3  12
HETATM   12  O   UNK     0      -1.215  -5.242  20.378  0.00  0.00    -0.311 OA
BRANCH  12  13
HETATM   13  C   UNK     0       0.144  -4.912  20.090  0.00  0.00     0.298 C 
HETATM   14  O   UNK     0       0.291  -4.643  18.696  0.00  0.00    -0.348 OA
HETATM   15  C   UNK     0       1.635  -4.312  18.326  0.00  0.00     0.179 C 
HETATM   16  C   UNK     0       2.562  -5.497  18.616  0.00  0.00     0.180 C 
HETATM   17  C   UNK     0       2.469  -5.876  20.095  0.00  0.00     0.183 C 
HETATM   18  C   UNK     0       1.015  -6.096  20.515  0.00  0.00     0.205 C 
BRANCH  15  19
HETATM   19  C   UNK     0       1.620  -3.936  16.849  0.00  0.00     0.198 C 
BRANCH  19  20
HETATM   20  O   UNK     0       2.958  -3.844  16.391  0.00  0.00    -0.398 OA
HETATM   21  H   UNK     0       3.414  -3.191  16.948  0.00  0.00     0.209 HD
ENDBRANCH  19  20
ENDBRANCH  15  19
BRANCH  16  22
HETATM   22  O   UNK     0       2.164  -6.609  17.811  0.00  0.00    -0.390 OA
HETATM   23  H   UNK     0       1.452  -7.070  18.285  0.00  0.00     0.210 HD
ENDBRANCH  16  22
BRANCH  17  24
HETATM   24  O   UNK     0       3.213  -7.066  20.345  0.00  0.00    -0.390 OA
HETATM   25  H   UNK     0       2.598  -7.815  20.270  0.00  0.00     0.210 HD
ENDBRANCH  17  24
BRANCH  18  26
HETATM   26  O   UNK     0       0.951  -6.220  21.936  0.00  0.00    -0.388 OA
HETATM   27  H   UNK     0       1.584  -6.913  22.190  0.00  0.00     0.210 HD
ENDBRANCH  18  26
ENDBRANCH  12  13
ENDBRANCH   3  12
BRANCH   4  28
HETATM   28  C   UNK     0      -3.082  -3.659  18.840  0.00  0.00     0.004 A 
HETATM   29  C   UNK     0      -3.974  -4.674  18.492  0.00  0.00     0.053 A 
HETATM   30  C   UNK     0      -4.281  -4.904  17.151  0.00  0.00     0.099 A 
HETATM   31  C   UNK     0      -3.694  -4.119  16.157  0.00  0.00     0.098 A 
HETATM   32  C   UNK     0      -2.802  -3.105  16.506  0.00  0.00     0.040 A 
HETATM   33  C   UNK     0      -2.497  -2.874  17.846  0.00  0.00     0.017 A 
BRANCH  30  34
HETATM   34  O   UNK     0      -5.152  -5.898  16.823  0.00  0.00    -0.358 OA
HETATM   35  H   UNK     0      -5.861  -5.916  17.490  0.00  0.00     0.217 HD
ENDBRANCH  30  34
BRANCH  31  36
HETATM   36  O   UNK     0      -3.986  -4.333  14.844  0.00  0.00    -0.358 OA
HETATM   37  H   UNK     0      -3.859  -5.277  14.642  0.00  0.00     0.217 HD
ENDBRANCH  31  36
ENDBRANCH   4  28
BRANCH   8  38
HETATM   38  O   UNK     0      -1.312  -2.977  25.095  0.00  0.00    -0.360 OA
HETATM   39  H   UNK     0      -1.151  -3.880  24.780  0.00  0.00     0.217 HD
ENDBRANCH   8  38
BRANCH  11  40
HETATM   40  O   UNK     0      -4.394   0.571  24.422  0.00  0.00    -0.361 OA
HETATM   41  H   UNK     0      -3.836   1.362  24.329  0.00  0.00     0.217 HD
ENDBRANCH  11  40
TORSDOF 12
ENDMDL
MODEL 2
REMARK VINA RESULT:      -8.2      1.277      1.646
REMARK  12 active torsions:
REMARK  status: ('A' for Active; 'I' for Inactive)
REMARK    1  A    between atoms: O_2  and  C_17 
REMARK    2  A    between atoms: O_2  and  C_19 
REMARK    3  A    between atoms: O_3  and  C_13 
REMARK    4  A    between atoms: O_4  and  C_14 
REMARK    5  A    between atoms: O_5  and  C_15 
REMARK    6  A    between atoms: O_6  and  C_18 
REMARK    7  A    between atoms: O_9  and  C_25 
REMARK    8  A    between atoms: O_10  and  C_30 
REMARK    9  A    between atoms: O_11  and  C_31 
REMARK   10  A    between atoms: O_12  and  C_33 
REMARK   11  A    between atoms: C_16  and  C_18 
REMARK   12  A    between atoms: C_20  and  C_24 
ROOT
HETATM    1  O   UNK     0      -3.709  -2.094  21.952  0.00  0.00    -0.306 OA
HETATM    2  O   UNK     0      -1.356  -4.061  24.634  0.00  0.00    -0.284 OA
HETATM    3  C   UNK     0      -2.309  -3.996  22.467  0.00  0.00     0.157 A 
HETATM    4  C   UNK     0      -3.102  -3.299  21.634  0.00  0.00     0.124 A 
HETATM    5  C   UNK     0      -2.066  -3.470  23.832  0.00  0.00     0.223 A 
HETATM    6  C   UNK     0      -2.726  -2.199  24.168  0.00  0.00     0.084 A 
HETATM    7  C   UNK     0      -3.516  -1.574  23.205  0.00  0.00     0.096 A 
HETATM    8  C   UNK     0      -2.564  -1.621  25.430  0.00  0.00     0.085 A 
HETATM    9  C   UNK     0      -4.150  -0.367  23.498  0.00  0.00     0.075 A 
HETATM   10  C   UNK     0      -3.199  -0.413  25.720  0.00  0.00     0.074 A 
HETATM   11  C   UNK     0      -3.991   0.213  24.757  0.00  0.00     0.071 A 
ENDROOT
BRANCH   3  12
HETATM   12  O   UNK     0      -1.693  -5.176  22.109  0.00  0.00    -0.311 OA
BRANCH  12  13
HETATM   13  C   UNK     0      -0.326  -4.967  21.754  0.00  0.00     0.298 C 
HETATM   14  O   UNK     0      -0.186  -4.992  20.334  0.00  0.00    -0.348 OA
HETATM   15  C   UNK     0       1.166  -4.800  19.899  0.00  0.00     0.179 C 
HETATM   16  C   UNK     0       2.049  -5.938  20.420  0.00  0.00     0.180 C 
HETATM   17  C   UNK     0       1.959  -6.006  21.946  0.00  0.00     0.183 C 
HETATM   18  C   UNK     0       0.503  -6.075  22.408  0.00  0.00     0.205 C 
BRANCH  15  19
HETATM   19  C   UNK     0       1.147  -4.730  18.376  0.00  0.00     0.198 C 
BRANCH  19  20
HETATM   20  O   UNK     0       2.361  -5.270  17.884  0.00  0.00    -0.398 OA
HETATM   21  H   UNK     0       2.818  -4.565  17.394  0.00  0.00     0.209 HD
ENDBRANCH  19  20
ENDBRANCH  15  19
BRANCH  16  22
HETATM   22  O   UNK     0       1.597  -7.173  19.859  0.00  0.00    -0.390 OA
HETATM   23  H   UNK     0       1.714  -7.114  18.896  0.00  0.00     0.210 HD
ENDBRANCH  16  22
BRANCH  17  24
HETATM   24  O   UNK     0       2.659  -7.150  22.428  0.00  0.00    -0.390 OA
HETATM   25  H   UNK     0       2.175  -7.481  23.204  0.00  0.00     0.210 HD
ENDBRANCH  17  24
BRANCH  18  26
HETATM   26  O   UNK     0       0.451  -5.906  23.824  0.00  0.00    -0.388 OA
HETATM   27  H   UNK     0       1.217  -5.361  24.074  0.00  0.00     0.210 HD
ENDBRANCH  18  26
ENDBRANCH  12  13
ENDBRANCH   3  12
BRANCH   4  28
HETATM   28  C   UNK     0      -3.389  -3.743  20.258  0.00  0.00     0.004 A 
HETATM   29  C   UNK     0      -4.192  -4.864  20.040  0.00  0.00     0.053 A 
HETATM   30  C   UNK     0      -4.464  -5.284  18.739  0.00  0.00     0.099 A 
HETATM   31  C   UNK     0      -3.935  -4.583  17.654  0.00  0.00     0.098 A 
HETATM   32  C   UNK     0      -3.133  -3.463  17.872  0.00  0.00     0.040 A 
HETATM   33  C   UNK     0      -2.860  -3.043  19.173  0.00  0.00     0.017 A 
BRANCH  30  34
HETATM   34  O   UNK     0      -5.248  -6.380  18.538  0.00  0.00    -0.358 OA
HETATM   35  H   UNK     0      -5.711  -6.581  19.370  0.00  0.00     0.217 HD
ENDBRANCH  30  34
BRANCH  31  36
HETATM   36  O   UNK     0      -4.195  -4.984  16.378  0.00  0.00    -0.358 OA
HETATM   37  H   UNK     0      -3.992  -5.932  16.296  0.00  0.00     0.217 HD
ENDBRANCH  31  36
ENDBRANCH   4  28
BRANCH   8  38
HETATM   38  O   UNK     0      -1.802  -2.189  26.405  0.00  0.00    -0.360 OA
HETATM   39  H   UNK     0      -2.305  -2.265  27.231  0.00  0.00     0.217 HD
ENDBRANCH   8  38
BRANCH  11  40
HETATM   40  O   UNK     0      -4.605   1.393  25.045  0.00  0.00    -0.361 OA
HETATM   41  H   UNK     0      -3.952   2.111  24.987  0.00  0.00     0.217 HD
ENDBRANCH  11  40
TORSDOF 12
ENDMDL
MODEL 3
REMARK VINA RESULT:      -7.9      3.203      5.734
REMARK  12 active torsions:
REMARK  status: ('A' for Active; 'I' for Inactive)
REMARK    1  A    between atoms: O_2  and  C_17 
REMARK    2  A    between atoms: O_2  and  C_19 
REMARK    3  A    between atoms: O_3  and  C_13 
REMARK    4  A    between atoms: O_4  and  C_14 
REMARK    5  A    between atoms: O_5  and  C_15 
REMARK    6  A    between atoms: O_6  and  C_18 
REMARK    7  A    between atoms: O_9  and  C_25 
REMARK    8  A    between atoms: O_10  and  C_30 
REMARK    9  A    between atoms: O_11  and  C_31 
REMARK   10  A    between atoms: O_12  and  C_33 
REMARK   11  A    between atoms: C_16  and  C_18 
REMARK   12  A    between atoms: C_20  and  C_24 
ROOT
HETATM    1  O   UNK     0      -4.287  -0.751  23.267  0.00  0.00    -0.306 OA
HETATM    2  O   UNK     0      -1.795  -0.713  26.490  0.00  0.00    -0.284 OA
HETATM    3  C   UNK     0      -2.319  -1.623  24.368  0.00  0.00     0.157 A 
HETATM    4  C   UNK     0      -3.185  -1.588  23.339  0.00  0.00     0.124 A 
HETATM    5  C   UNK     0      -2.548  -0.725  25.526  0.00  0.00     0.223 A 
HETATM    6  C   UNK     0      -3.728   0.150  25.450  0.00  0.00     0.084 A 
HETATM    7  C   UNK     0      -4.539   0.091  24.319  0.00  0.00     0.096 A 
HETATM    8  C   UNK     0      -4.033   1.030  26.492  0.00  0.00     0.085 A 
HETATM    9  C   UNK     0      -5.662   0.913  24.222  0.00  0.00     0.075 A 
HETATM   10  C   UNK     0      -5.157   1.850  26.392  0.00  0.00     0.074 A 
HETATM   11  C   UNK     0      -5.970   1.792  25.260  0.00  0.00     0.071 A 
ENDROOT
BRANCH   3  12
HETATM   12  O   UNK     0      -1.213  -2.444  24.394  0.00  0.00    -0.311 OA
BRANCH  12  13
HETATM   13  C   UNK     0      -1.548  -3.762  24.829  0.00  0.00     0.298 C 
HETATM   14  O   UNK     0      -1.633  -3.793  26.253  0.00  0.00    -0.348 OA
HETATM   15  C   UNK     0      -1.956  -5.091  26.769  0.00  0.00     0.179 C 
HETATM   16  C   UNK     0      -0.853  -6.088  26.400  0.00  0.00     0.180 C 
HETATM   17  C   UNK     0      -0.671  -6.121  24.882  0.00  0.00     0.183 C 
HETATM   18  C   UNK     0      -0.461  -4.713  24.323  0.00  0.00     0.205 C 
BRANCH  15  19
HETATM   19  C   UNK     0      -2.131  -4.950  28.276  0.00  0.00     0.198 C 
BRANCH  19  20
HETATM   20  O   UNK     0      -1.303  -3.894  28.731  0.00  0.00    -0.398 OA
HETATM   21  H   UNK     0      -0.387  -4.219  28.730  0.00  0.00     0.209 HD
ENDBRANCH  19  20
ENDBRANCH  15  19
BRANCH  16  22
HETATM   22  O   UNK     0       0.369  -5.681  27.020  0.00  0.00    -0.390 OA
HETATM   23  H   UNK     0       1.093  -5.915  26.414  0.00  0.00     0.210 HD
ENDBRANCH  16  22
BRANCH  17  24
HETATM   24  O   UNK     0       0.449  -6.933  24.539  0.00  0.00    -0.390 OA
HETATM   25  H   UNK     0       1.029  -6.402  23.967  0.00  0.00     0.210 HD
ENDBRANCH  17  24
BRANCH  18  26
HETATM   26  O   UNK     0      -0.525  -4.759  22.898  0.00  0.00    -0.388 OA
HETATM   27  H   UNK     0      -0.260  -3.882  22.572  0.00  0.00     0.210 HD
ENDBRANCH  18  26
ENDBRANCH  12  13
ENDBRANCH   3  12
BRANCH   4  28
HETATM   28  C   UNK     0      -3.029  -2.438  22.145  0.00  0.00     0.004 A 
HETATM   29  C   UNK     0      -3.692  -3.664  22.070  0.00  0.00     0.053 A 
HETATM   30  C   UNK     0      -3.546  -4.468  20.940  0.00  0.00     0.099 A 
HETATM   31  C   UNK     0      -2.736  -4.047  19.884  0.00  0.00     0.098 A 
HETATM   32  C   UNK     0      -2.074  -2.822  19.960  0.00  0.00     0.040 A 
HETATM   33  C   UNK     0      -2.221  -2.017  21.089  0.00  0.00     0.017 A 
BRANCH  30  34
HETATM   34  O   UNK     0      -4.196  -5.663  20.879  0.00  0.00    -0.358 OA
HETATM   35  H   UNK     0      -3.543  -6.358  20.681  0.00  0.00     0.217 HD
ENDBRANCH  30  34
BRANCH  31  36
HETATM   36  O   UNK     0      -2.586  -4.823  18.775  0.00  0.00    -0.358 OA
HETATM   37  H   UNK     0      -3.112  -5.635  18.883  0.00  0.00     0.217 HD
ENDBRANCH  31  36
ENDBRANCH   4  28
BRANCH   8  38
HETATM   38  O   UNK     0      -3.273   1.127  27.617  0.00  0.00    -0.360 OA
HETATM   39  H   UNK     0      -2.430   1.566  27.424  0.00  0.00     0.217 HD
ENDBRANCH   8  38
BRANCH  11  40
HETATM   40  O   UNK     0      -7.064   2.598  25.167  0.00  0.00    -0.361 OA
HETATM   41  H   UNK     0      -7.755   2.261  25.762  0.00  0.00     0.217 HD
ENDBRANCH  11  40
TORSDOF 12
ENDMDL
MODEL 4
REMARK VINA RESULT:      -7.8      2.322      6.964
REMARK  12 active torsions:
REMARK  status: ('A' for Active; 'I' for Inactive)
REMARK    1  A    between atoms: O_2  and  C_17 
REMARK    2  A    between atoms: O_2  and  C_19 
REMARK    3  A    between atoms: O_3  and  C_13 
REMARK    4  A    between atoms: O_4  and  C_14 
REMARK    5  A    between atoms: O_5  and  C_15 
REMARK    6  A    between atoms: O_6  and  C_18 
REMARK    7  A    between atoms: O_9  and  C_25 
REMARK    8  A    between atoms: O_10  and  C_30 
REMARK    9  A    between atoms: O_11  and  C_31 
REMARK   10  A    between atoms: O_12  and  C_33 
REMARK   11  A    between atoms: C_16  and  C_18 
REMARK   12  A    between atoms: C_20  and  C_24 
ROOT
HETATM    1  O   UNK     0      -1.515  -4.489  19.157  0.00  0.00    -0.306 OA
HETATM    2  O   UNK     0      -4.875  -5.368  21.287  0.00  0.00    -0.284 OA
HETATM    3  C   UNK     0      -2.524  -5.093  21.270  0.00  0.00     0.157 A 
HETATM    4  C   UNK     0      -1.455  -4.800  20.506  0.00  0.00     0.124 A 
HETATM    5  C   UNK     0      -3.868  -5.108  20.643  0.00  0.00     0.223 A 
HETATM    6  C   UNK     0      -3.922  -4.792  19.208  0.00  0.00     0.084 A 
HETATM    7  C   UNK     0      -2.738  -4.497  18.537  0.00  0.00     0.096 A 
HETATM    8  C   UNK     0      -5.140  -4.784  18.524  0.00  0.00     0.085 A 
HETATM    9  C   UNK     0      -2.763  -4.191  17.176  0.00  0.00     0.075 A 
HETATM   10  C   UNK     0      -5.163  -4.478  17.163  0.00  0.00     0.074 A 
HETATM   11  C   UNK     0      -3.978  -4.183  16.490  0.00  0.00     0.071 A 
ENDROOT
BRANCH   3  12
HETATM   12  O   UNK     0      -2.434  -5.365  22.618  0.00  0.00    -0.311 OA
BRANCH  12  13
HETATM   13  C   UNK     0      -3.017  -4.326  23.403  0.00  0.00     0.298 C 
HETATM   14  O   UNK     0      -2.675  -3.054  22.852  0.00  0.00    -0.348 OA
HETATM   15  C   UNK     0      -3.218  -1.955  23.595  0.00  0.00     0.179 C 
HETATM   16  C   UNK     0      -2.647  -1.955  25.017  0.00  0.00     0.180 C 
HETATM   17  C   UNK     0      -2.951  -3.291  25.697  0.00  0.00     0.183 C 
HETATM   18  C   UNK     0      -2.489  -4.465  24.833  0.00  0.00     0.205 C 
BRANCH  15  19
HETATM   19  C   UNK     0      -2.878  -0.680  22.833  0.00  0.00     0.198 C 
BRANCH  19  20
HETATM   20  O   UNK     0      -1.659  -0.879  22.139  0.00  0.00    -0.398 OA
HETATM   21  H   UNK     0      -0.938  -0.819  22.788  0.00  0.00     0.209 HD
ENDBRANCH  19  20
ENDBRANCH  15  19
BRANCH  16  22
HETATM   22  O   UNK     0      -1.232  -1.762  24.952  0.00  0.00    -0.390 OA
HETATM   23  H   UNK     0      -0.861  -2.507  24.450  0.00  0.00     0.210 HD
ENDBRANCH  16  22
BRANCH  17  24
HETATM   24  O   UNK     0      -2.300  -3.357  26.963  0.00  0.00    -0.390 OA
HETATM   25  H   UNK     0      -2.858  -3.895  27.550  0.00  0.00     0.210 HD
ENDBRANCH  17  24
BRANCH  18  26
HETATM   26  O   UNK     0      -2.990  -5.681  25.386  0.00  0.00    -0.388 OA
HETATM   27  H   UNK     0      -2.613  -6.409  24.862  0.00  0.00     0.210 HD
ENDBRANCH  18  26
ENDBRANCH  12  13
ENDBRANCH   3  12
BRANCH   4  28
HETATM   28  C   UNK     0      -0.085  -4.752  21.048  0.00  0.00     0.004 A 
HETATM   29  C   UNK     0       0.544  -3.522  21.247  0.00  0.00     0.053 A 
HETATM   30  C   UNK     0       1.840  -3.477  21.760  0.00  0.00     0.099 A 
HETATM   31  C   UNK     0       2.508  -4.662  22.073  0.00  0.00     0.098 A 
HETATM   32  C   UNK     0       1.879  -5.890  21.873  0.00  0.00     0.040 A 
HETATM   33  C   UNK     0       0.583  -5.936  21.361  0.00  0.00     0.017 A 
BRANCH  30  34
HETATM   34  O   UNK     0       2.445  -2.271  21.950  0.00  0.00    -0.358 OA
HETATM   35  H   UNK     0       1.959  -1.791  22.643  0.00  0.00     0.217 HD
ENDBRANCH  30  34
BRANCH  31  36
HETATM   36  O   UNK     0       3.774  -4.630  22.575  0.00  0.00    -0.358 OA
HETATM   37  H   UNK     0       4.135  -5.534  22.582  0.00  0.00     0.217 HD
ENDBRANCH  31  36
ENDBRANCH   4  28
BRANCH   8  38
HETATM   38  O   UNK     0      -6.326  -5.064  19.133  0.00  0.00    -0.360 OA
HETATM   39  H   UNK     0      -6.370  -6.000  19.382  0.00  0.00     0.217 HD
ENDBRANCH   8  38
BRANCH  11  40
HETATM   40  O   UNK     0      -4.006  -3.881  15.162  0.00  0.00    -0.361 OA
HETATM   41  H   UNK     0      -3.918  -4.704  14.651  0.00  0.00     0.217 HD
ENDBRANCH  11  40
TORSDOF 12
ENDMDL
MODEL 5
REMARK VINA RESULT:      -7.7      2.483      6.128
REMARK  12 active torsions:
REMARK  status: ('A' for Active; 'I' for Inactive)
REMARK    1  A    between atoms: O_2  and  C_17 
REMARK    2  A    between atoms: O_2  and  C_19 
REMARK    3  A    between atoms: O_3  and  C_13 
REMARK    4  A    between atoms: O_4  and  C_14 
REMARK    5  A    between atoms: O_5  and  C_15 
REMARK    6  A    between atoms: O_6  and  C_18 
REMARK    7  A    between atoms: O_9  and  C_25 
REMARK    8  A    between atoms: O_10  and  C_30 
REMARK    9  A    between atoms: O_11  and  C_31 
REMARK   10  A    between atoms: O_12  and  C_33 
REMARK   11  A    between atoms: C_16  and  C_18 
REMARK   12  A    between atoms: C_20  and  C_24 
ROOT
HETATM    1  O   UNK     0      -2.758  -5.266  21.538  0.00  0.00    -0.306 OA
HETATM    2  O   UNK     0      -1.310  -3.836  18.009  0.00  0.00    -0.284 OA
HETATM    3  C   UNK     0      -0.911  -4.331  20.289  0.00  0.00     0.157 A 
HETATM    4  C   UNK     0      -1.454  -4.809  21.424  0.00  0.00     0.124 A 
HETATM    5  C   UNK     0      -1.749  -4.262  19.068  0.00  0.00     0.223 A 
HETATM    6  C   UNK     0      -3.136  -4.734  19.201  0.00  0.00     0.084 A 
HETATM    7  C   UNK     0      -3.569  -5.214  20.435  0.00  0.00     0.096 A 
HETATM    8  C   UNK     0      -4.008  -4.707  18.110  0.00  0.00     0.085 A 
HETATM    9  C   UNK     0      -4.879  -5.671  20.586  0.00  0.00     0.075 A 
HETATM   10  C   UNK     0      -5.317  -5.164  18.263  0.00  0.00     0.074 A 
HETATM   11  C   UNK     0      -5.752  -5.644  19.498  0.00  0.00     0.071 A 
ENDROOT
BRANCH   3  12
HETATM   12  O   UNK     0       0.400  -3.915  20.200  0.00  0.00    -0.311 OA
BRANCH  12  13
HETATM   13  C   UNK     0       1.280  -5.007  19.933  0.00  0.00     0.298 C 
HETATM   14  O   UNK     0       2.067  -5.287  21.090  0.00  0.00    -0.348 OA
HETATM   15  C   UNK     0       2.987  -6.368  20.896  0.00  0.00     0.179 C 
HETATM   16  C   UNK     0       3.989  -6.010  19.793  0.00  0.00     0.180 C 
HETATM   17  C   UNK     0       3.239  -5.677  18.501  0.00  0.00     0.183 C 
HETATM   18  C   UNK     0       2.166  -4.616  18.747  0.00  0.00     0.205 C 
BRANCH  15  19
HETATM   19  C   UNK     0       3.667  -6.632  22.234  0.00  0.00     0.198 C 
BRANCH  19  20
HETATM   20  O   UNK     0       3.652  -5.436  22.993  0.00  0.00    -0.398 OA
HETATM   21  H   UNK     0       2.934  -4.879  22.649  0.00  0.00     0.209 HD
ENDBRANCH  19  20
ENDBRANCH  15  19
BRANCH  16  22
HETATM   22  O   UNK     0       4.753  -4.876  20.208  0.00  0.00    -0.390 OA
HETATM   23  H   UNK     0       5.016  -5.026  21.132  0.00  0.00     0.210 HD
ENDBRANCH  16  22
BRANCH  17  24
HETATM   24  O   UNK     0       4.150  -5.201  17.514  0.00  0.00    -0.390 OA
HETATM   25  H   UNK     0       4.280  -4.250  17.672  0.00  0.00     0.210 HD
ENDBRANCH  17  24
BRANCH  18  26
HETATM   26  O   UNK     0       1.345  -4.501  17.586  0.00  0.00    -0.388 OA
HETATM   27  H   UNK     0       0.942  -5.373  17.434  0.00  0.00     0.210 HD
ENDBRANCH  18  26
ENDBRANCH  12  13
ENDBRANCH   3  12
BRANCH   4  28
HETATM   28  C   UNK     0      -0.692  -4.922  22.680  0.00  0.00     0.004 A 
HETATM   29  C   UNK     0      -0.376  -3.775  23.410  0.00  0.00     0.053 A 
HETATM   30  C   UNK     0       0.344  -3.882  24.599  0.00  0.00     0.099 A 
HETATM   31  C   UNK     0       0.750  -5.135  25.060  0.00  0.00     0.098 A 
HETATM   32  C   UNK     0       0.434  -6.281  24.329  0.00  0.00     0.040 A 
HETATM   33  C   UNK     0      -0.287  -6.175  23.141  0.00  0.00     0.017 A 
BRANCH  30  34
HETATM   34  O   UNK     0       0.647  -2.755  25.303  0.00  0.00    -0.358 OA
HETATM   35  H   UNK     0       0.702  -2.010  24.679  0.00  0.00     0.217 HD
ENDBRANCH  30  34
BRANCH  31  36
HETATM   36  O   UNK     0       1.453  -5.252  26.220  0.00  0.00    -0.358 OA
HETATM   37  H   UNK     0       1.195  -4.530  26.820  0.00  0.00     0.217 HD
ENDBRANCH  31  36
ENDBRANCH   4  28
BRANCH   8  38
HETATM   38  O   UNK     0      -3.634  -4.249  16.883  0.00  0.00    -0.360 OA
HETATM   39  H   UNK     0      -3.379  -3.314  16.930  0.00  0.00     0.217 HD
ENDBRANCH   8  38
BRANCH  11  40
HETATM   40  O   UNK     0      -7.030  -6.093  19.641  0.00  0.00    -0.361 OA
HETATM   41  H   UNK     0      -7.259  -6.095  20.586  0.00  0.00     0.217 HD
ENDBRANCH  11  40
TORSDOF 12
ENDMDL
MODEL 6
REMARK VINA RESULT:      -7.4      2.470      6.517
REMARK  12 active torsions:
REMARK  status: ('A' for Active; 'I' for Inactive)
REMARK    1  A    between atoms: O_2  and  C_17 
REMARK    2  A    between atoms: O_2  and  C_19 
REMARK    3  A    between atoms: O_3  and  C_13 
REMARK    4  A    between atoms: O_4  and  C_14 
REMARK    5  A    between atoms: O_5  and  C_15 
REMARK    6  A    between atoms: O_6  and  C_18 
REMARK    7  A    between atoms: O_9  and  C_25 
REMARK    8  A    between atoms: O_10  and  C_30 
REMARK    9  A    between atoms: O_11  and  C_31 
REMARK   10  A    between atoms: O_12  and  C_33 
REMARK   11  A    between atoms: C_16  and  C_18 
REMARK   12  A    between atoms: C_20  and  C_24 
ROOT
HETATM    1  O   UNK     0      -4.258  -4.761  21.542  0.00  0.00    -0.306 OA
HETATM    2  O   UNK     0      -1.705  -3.234  18.759  0.00  0.00    -0.284 OA
HETATM    3  C   UNK     0      -2.238  -3.528  21.047  0.00  0.00     0.157 A 
HETATM    4  C   UNK     0      -3.126  -4.053  21.912  0.00  0.00     0.124 A 
HETATM    5  C   UNK     0      -2.476  -3.690  19.592  0.00  0.00     0.223 A 
HETATM    6  C   UNK     0      -3.688  -4.430  19.207  0.00  0.00     0.084 A 
HETATM    7  C   UNK     0      -4.519  -4.929  20.207  0.00  0.00     0.096 A 
HETATM    8  C   UNK     0      -4.003  -4.634  17.861  0.00  0.00     0.085 A 
HETATM    9  C   UNK     0      -5.672  -5.637  19.868  0.00  0.00     0.075 A 
HETATM   10  C   UNK     0      -5.157  -5.341  17.525  0.00  0.00     0.074 A 
HETATM   11  C   UNK     0      -5.990  -5.842  18.525  0.00  0.00     0.071 A 
ENDROOT
BRANCH   3  12
HETATM   12  O   UNK     0      -1.103  -2.857  21.447  0.00  0.00    -0.311 OA
BRANCH  12  13
HETATM   13  C   UNK     0      -0.138  -3.746  22.008  0.00  0.00     0.298 C 
HETATM   14  O   UNK     0       0.101  -3.400  23.372  0.00  0.00    -0.348 OA
HETATM   15  C   UNK     0       1.071  -4.245  24.004  0.00  0.00     0.179 C 
HETATM   16  C   UNK     0       2.424  -4.104  23.299  0.00  0.00     0.180 C 
HETATM   17  C   UNK     0       2.273  -4.443  21.815  0.00  0.00     0.183 C 
HETATM   18  C   UNK     0       1.143  -3.632  21.180  0.00  0.00     0.205 C 
BRANCH  15  19
HETATM   19  C   UNK     0       1.137  -3.842  25.473  0.00  0.00     0.198 C 
BRANCH  19  20
HETATM   20  O   UNK     0       0.772  -2.478  25.584  0.00  0.00    -0.398 OA
HETATM   21  H   UNK     0       0.975  -2.049  24.735  0.00  0.00     0.209 HD
ENDBRANCH  19  20
ENDBRANCH  15  19
BRANCH  16  22
HETATM   22  O   UNK     0       2.884  -2.758  23.438  0.00  0.00    -0.390 OA
HETATM   23  H   UNK     0       2.920  -2.560  24.389  0.00  0.00     0.210 HD
ENDBRANCH  16  22
BRANCH  17  24
HETATM   24  O   UNK     0       3.489  -4.174  21.124  0.00  0.00    -0.390 OA
HETATM   25  H   UNK     0       4.181  -4.725  21.527  0.00  0.00     0.210 HD
ENDBRANCH  17  24
BRANCH  18  26
HETATM   26  O   UNK     0       0.883  -4.137  19.870  0.00  0.00    -0.388 OA
HETATM   27  H   UNK     0       0.249  -4.867  19.967  0.00  0.00     0.210 HD
ENDBRANCH  18  26
ENDBRANCH  12  13
ENDBRANCH   3  12
BRANCH   4  28
HETATM   28  C   UNK     0      -2.964  -3.947  23.373  0.00  0.00     0.004 A 
HETATM   29  C   UNK     0      -2.692  -5.089  24.128  0.00  0.00     0.053 A 
HETATM   30  C   UNK     0      -2.537  -4.990  25.511  0.00  0.00     0.099 A 
HETATM   31  C   UNK     0      -2.656  -3.749  26.139  0.00  0.00     0.098 A 
HETATM   32  C   UNK     0      -2.928  -2.609  25.383  0.00  0.00     0.040 A 
HETATM   33  C   UNK     0      -3.082  -2.707  24.001  0.00  0.00     0.017 A 
BRANCH  30  34
HETATM   34  O   UNK     0      -2.273  -6.110  26.238  0.00  0.00    -0.358 OA
HETATM   35  H   UNK     0      -2.954  -6.195  26.928  0.00  0.00     0.217 HD
ENDBRANCH  30  34
BRANCH  31  36
HETATM   36  O   UNK     0      -2.506  -3.639  27.488  0.00  0.00    -0.358 OA
HETATM   37  H   UNK     0      -3.130  -4.245  27.926  0.00  0.00     0.217 HD
ENDBRANCH  31  36
ENDBRANCH   4  28
BRANCH   8  38
HETATM   38  O   UNK     0      -3.224  -4.167  16.846  0.00  0.00    -0.360 OA
HETATM   39  H   UNK     0      -3.671  -4.282  15.993  0.00  0.00     0.217 HD
ENDBRANCH   8  38
BRANCH  11  40
HETATM   40  O   UNK     0      -7.114  -6.535  18.191  0.00  0.00    -0.361 OA
HETATM   41  H   UNK     0      -6.854  -7.395  17.819  0.00  0.00     0.217 HD
ENDBRANCH  11  40
TORSDOF 12
ENDMDL
MODEL 7
REMARK VINA RESULT:      -7.3      3.297      5.479
REMARK  12 active torsions:
REMARK  status: ('A' for Active; 'I' for Inactive)
REMARK    1  A    between atoms: O_2  and  C_17 
REMARK    2  A    between atoms: O_2  and  C_19 
REMARK    3  A    between atoms: O_3  and  C_13 
REMARK    4  A    between atoms: O_4  and  C_14 
REMARK    5  A    between atoms: O_5  and  C_15 
REMARK    6  A    between atoms: O_6  and  C_18 
REMARK    7  A    between atoms: O_9  and  C_25 
REMARK    8  A    between atoms: O_10  and  C_30 
REMARK    9  A    between atoms: O_11  and  C_31 
REMARK   10  A    between atoms: O_12  and  C_33 
REMARK   11  A    between atoms: C_16  and  C_18 
REMARK   12  A    between atoms: C_20  and  C_24 
ROOT
HETATM    1  O   UNK     0      -4.368  -0.797  22.896  0.00  0.00    -0.306 OA
HETATM    2  O   UNK     0      -1.765  -0.919  26.028  0.00  0.00    -0.284 OA
HETATM    3  C   UNK     0      -2.369  -1.729  23.887  0.00  0.00     0.157 A 
HETATM    4  C   UNK     0      -3.270  -1.643  22.892  0.00  0.00     0.124 A 
HETATM    5  C   UNK     0      -2.551  -0.883  25.091  0.00  0.00     0.223 A 
HETATM    6  C   UNK     0      -3.726   0.001  25.096  0.00  0.00     0.084 A 
HETATM    7  C   UNK     0      -4.577  -0.002  23.993  0.00  0.00     0.096 A 
HETATM    8  C   UNK     0      -3.989   0.835  26.186  0.00  0.00     0.085 A 
HETATM    9  C   UNK     0      -5.696   0.830  23.972  0.00  0.00     0.075 A 
HETATM   10  C   UNK     0      -5.109   1.666  26.163  0.00  0.00     0.074 A 
HETATM   11  C   UNK     0      -5.962   1.663  25.059  0.00  0.00     0.071 A 
ENDROOT
BRANCH   3  12
HETATM   12  O   UNK     0      -1.269  -2.557  23.837  0.00  0.00    -0.311 OA
BRANCH  12  13
HETATM   13  C   UNK     0      -1.010  -3.164  25.103  0.00  0.00     0.298 C 
HETATM   14  O   UNK     0       0.347  -2.935  25.480  0.00  0.00    -0.348 OA
HETATM   15  C   UNK     0       0.688  -3.525  26.740  0.00  0.00     0.179 C 
HETATM   16  C   UNK     0       0.533  -5.047  26.663  0.00  0.00     0.180 C 
HETATM   17  C   UNK     0      -0.897  -5.402  26.250  0.00  0.00     0.183 C 
HETATM   18  C   UNK     0      -1.299  -4.661  24.974  0.00  0.00     0.205 C 
BRANCH  15  19
HETATM   19  C   UNK     0       2.115  -3.103  27.069  0.00  0.00     0.198 C 
BRANCH  19  20
HETATM   20  O   UNK     0       2.090  -1.782  27.581  0.00  0.00    -0.398 OA
HETATM   21  H   UNK     0       2.998  -1.437  27.548  0.00  0.00     0.209 HD
ENDBRANCH  19  20
ENDBRANCH  15  19
BRANCH  16  22
HETATM   22  O   UNK     0       1.452  -5.561  25.695  0.00  0.00    -0.390 OA
HETATM   23  H   UNK     0       1.493  -6.524  25.817  0.00  0.00     0.210 HD
ENDBRANCH  16  22
BRANCH  17  24
HETATM   24  O   UNK     0      -1.011  -6.806  26.032  0.00  0.00    -0.390 OA
HETATM   25  H   UNK     0      -0.591  -7.003  25.178  0.00  0.00     0.210 HD
ENDBRANCH  17  24
BRANCH  18  26
HETATM   26  O   UNK     0      -2.698  -4.836  24.751  0.00  0.00    -0.388 OA
HETATM   27  H   UNK     0      -2.905  -5.765  24.950  0.00  0.00     0.210 HD
ENDBRANCH  18  26
ENDBRANCH  12  13
ENDBRANCH   3  12
BRANCH   4  28
HETATM   28  C   UNK     0      -3.163  -2.439  21.656  0.00  0.00     0.004 A 
HETATM   29  C   UNK     0      -2.674  -1.851  20.488  0.00  0.00     0.053 A 
HETATM   30  C   UNK     0      -2.571  -2.604  19.319  0.00  0.00     0.099 A 
HETATM   31  C   UNK     0      -2.957  -3.945  19.316  0.00  0.00     0.098 A 
HETATM   32  C   UNK     0      -3.446  -4.532  20.483  0.00  0.00     0.040 A 
HETATM   33  C   UNK     0      -3.548  -3.780  21.652  0.00  0.00     0.017 A 
BRANCH  30  34
HETATM   34  O   UNK     0      -2.093  -2.020  18.185  0.00  0.00    -0.358 OA
HETATM   35  H   UNK     0      -1.344  -2.549  17.859  0.00  0.00     0.217 HD
ENDBRANCH  30  34
BRANCH  31  36
HETATM   36  O   UNK     0      -2.860  -4.691  18.180  0.00  0.00    -0.358 OA
HETATM   37  H   UNK     0      -3.503  -5.420  18.225  0.00  0.00     0.217 HD
ENDBRANCH  31  36
ENDBRANCH   4  28
BRANCH   8  38
HETATM   38  O   UNK     0      -3.189   0.877  27.288  0.00  0.00    -0.360 OA
HETATM   39  H   UNK     0      -2.276   1.088  27.039  0.00  0.00     0.217 HD
ENDBRANCH   8  38
BRANCH  11  40
HETATM   40  O   UNK     0      -7.052   2.479  25.041  0.00  0.00    -0.361 OA
HETATM   41  H   UNK     0      -7.064   3.008  25.857  0.00  0.00     0.217 HD
ENDBRANCH  11  40
TORSDOF 12
ENDMDL
MODEL 8
REMARK VINA RESULT:      -7.3      2.398      6.831
REMARK  12 active torsions:
REMARK  status: ('A' for Active; 'I' for Inactive)
REMARK    1  A    between atoms: O_2  and  C_17 
REMARK    2  A    between atoms: O_2  and  C_19 
REMARK    3  A    between atoms: O_3  and  C_13 
REMARK    4  A    between atoms: O_4  and  C_14 
REMARK    5  A    between atoms: O_5  and  C_15 
REMARK    6  A    between atoms: O_6  and  C_18 
REMARK    7  A    between atoms: O_9  and  C_25 
REMARK    8  A    between atoms: O_10  and  C_30 
REMARK    9  A    between atoms: O_11  and  C_31 
REMARK   10  A    between atoms: O_12  and  C_33 
REMARK   11  A    between atoms: C_16  and  C_18 
REMARK   12  A    between atoms: C_20  and  C_24 
ROOT
HETATM    1  O   UNK     0      -0.610  -3.975  18.609  0.00  0.00    -0.306 OA
HETATM    2  O   UNK     0      -4.192  -4.988  20.265  0.00  0.00    -0.284 OA
HETATM    3  C   UNK     0      -1.830  -4.996  20.430  0.00  0.00     0.157 A 
HETATM    4  C   UNK     0      -0.683  -4.638  19.824  0.00  0.00     0.124 A 
HETATM    5  C   UNK     0      -3.118  -4.687  19.762  0.00  0.00     0.223 A 
HETATM    6  C   UNK     0      -3.032  -3.997  18.466  0.00  0.00     0.084 A 
HETATM    7  C   UNK     0      -1.777  -3.676  17.955  0.00  0.00     0.096 A 
HETATM    8  C   UNK     0      -4.188  -3.665  17.755  0.00  0.00     0.085 A 
HETATM    9  C   UNK     0      -1.669  -3.019  16.729  0.00  0.00     0.075 A 
HETATM   10  C   UNK     0      -4.078  -3.009  16.530  0.00  0.00     0.074 A 
HETATM   11  C   UNK     0      -2.822  -2.686  16.017  0.00  0.00     0.071 A 
ENDROOT
BRANCH   3  12
HETATM   12  O   UNK     0      -1.870  -5.624  21.655  0.00  0.00    -0.311 OA
BRANCH  12  13
HETATM   13  C   UNK     0      -1.783  -4.688  22.729  0.00  0.00     0.298 C 
HETATM   14  O   UNK     0      -0.520  -4.817  23.381  0.00  0.00    -0.348 OA
HETATM   15  C   UNK     0      -0.360  -3.914  24.482  0.00  0.00     0.179 C 
HETATM   16  C   UNK     0      -1.412  -4.209  25.556  0.00  0.00     0.180 C 
HETATM   17  C   UNK     0      -2.813  -4.109  24.951  0.00  0.00     0.183 C 
HETATM   18  C   UNK     0      -2.933  -4.975  23.697  0.00  0.00     0.205 C 
BRANCH  15  19
HETATM   19  C   UNK     0       1.063  -4.077  25.002  0.00  0.00     0.198 C 
BRANCH  19  20
HETATM   20  O   UNK     0       1.714  -2.821  24.942  0.00  0.00    -0.398 OA
HETATM   21  H   UNK     0       1.275  -2.232  25.578  0.00  0.00     0.209 HD
ENDBRANCH  19  20
ENDBRANCH  15  19
BRANCH  16  22
HETATM   22  O   UNK     0      -1.203  -5.530  26.062  0.00  0.00    -0.390 OA
HETATM   23  H   UNK     0      -0.368  -5.521  26.560  0.00  0.00     0.210 HD
ENDBRANCH  16  22
BRANCH  17  24
HETATM   24  O   UNK     0      -3.790  -4.525  25.902  0.00  0.00    -0.390 OA
HETATM   25  H   UNK     0      -4.665  -4.376  25.505  0.00  0.00     0.210 HD
ENDBRANCH  17  24
BRANCH  18  26
HETATM   26  O   UNK     0      -4.164  -4.679  23.038  0.00  0.00    -0.388 OA
HETATM   27  H   UNK     0      -4.811  -4.457  23.730  0.00  0.00     0.210 HD
ENDBRANCH  18  26
ENDBRANCH  12  13
ENDBRANCH   3  12
BRANCH   4  28
HETATM   28  C   UNK     0       0.640  -4.897  20.419  0.00  0.00     0.004 A 
HETATM   29  C   UNK     0       1.166  -6.190  20.415  0.00  0.00     0.053 A 
HETATM   30  C   UNK     0       2.418  -6.435  20.977  0.00  0.00     0.099 A 
HETATM   31  C   UNK     0       3.146  -5.388  21.544  0.00  0.00     0.098 A 
HETATM   32  C   UNK     0       2.620  -4.096  21.548  0.00  0.00     0.040 A 
HETATM   33  C   UNK     0       1.368  -3.850  20.986  0.00  0.00     0.017 A 
BRANCH  30  34
HETATM   34  O   UNK     0       2.921  -7.701  20.968  0.00  0.00    -0.358 OA
HETATM   35  H   UNK     0       2.315  -8.275  21.469  0.00  0.00     0.217 HD
ENDBRANCH  30  34
BRANCH  31  36
HETATM   36  O   UNK     0       4.370  -5.615  22.095  0.00  0.00    -0.358 OA
HETATM   37  H   UNK     0       4.649  -6.524  21.885  0.00  0.00     0.217 HD
ENDBRANCH  31  36
ENDBRANCH   4  28
BRANCH   8  38
HETATM   38  O   UNK     0      -5.439  -3.956  18.211  0.00  0.00    -0.360 OA
HETATM   39  H   UNK     0      -5.453  -3.975  19.180  0.00  0.00     0.217 HD
ENDBRANCH   8  38
BRANCH  11  40
HETATM   40  O   UNK     0      -2.720  -2.042  14.821  0.00  0.00    -0.361 OA
HETATM   41  H   UNK     0      -2.444  -2.681  14.142  0.00  0.00     0.217 HD
ENDBRANCH  11  40
TORSDOF 12
ENDMDL
MODEL 9
REMARK VINA RESULT:      -6.7      9.246     12.328
REMARK  12 active torsions:
REMARK  status: ('A' for Active; 'I' for Inactive)
REMARK    1  A    between atoms: O_2  and  C_17 
REMARK    2  A    between atoms: O_2  and  C_19 
REMARK    3  A    between atoms: O_3  and  C_13 
REMARK    4  A    between atoms: O_4  and  C_14 
REMARK    5  A    between atoms: O_5  and  C_15 
REMARK    6  A    between atoms: O_6  and  C_18 
REMARK    7  A    between atoms: O_9  and  C_25 
REMARK    8  A    between atoms: O_10  and  C_30 
REMARK    9  A    between atoms: O_11  and  C_31 
REMARK   10  A    between atoms: O_12  and  C_33 
REMARK   11  A    between atoms: C_16  and  C_18 
REMARK   12  A    between atoms: C_20  and  C_24 
ROOT
HETATM    1  O   UNK     0       8.459   1.141  12.974  0.00  0.00    -0.306 OA
HETATM    2  O   UNK     0       5.161  -0.082  15.030  0.00  0.00    -0.284 OA
HETATM    3  C   UNK     0       6.936  -0.640  13.566  0.00  0.00     0.157 A 
HETATM    4  C   UNK     0       8.011  -0.168  12.909  0.00  0.00     0.124 A 
HETATM    5  C   UNK     0       6.148   0.290  14.410  0.00  0.00     0.223 A 
HETATM    6  C   UNK     0       6.621   1.682  14.462  0.00  0.00     0.084 A 
HETATM    7  C   UNK     0       7.756   2.036  13.738  0.00  0.00     0.096 A 
HETATM    8  C   UNK     0       5.945   2.637  15.227  0.00  0.00     0.085 A 
HETATM    9  C   UNK     0       8.226   3.349  13.774  0.00  0.00     0.075 A 
HETATM   10  C   UNK     0       6.417   3.950  15.260  0.00  0.00     0.074 A 
HETATM   11  C   UNK     0       7.554   4.306  14.536  0.00  0.00     0.071 A 
ENDROOT
BRANCH   3  12
HETATM   12  O   UNK     0       6.536  -1.958  13.506  0.00  0.00    -0.311 OA
BRANCH  12  13
HETATM   13  C   UNK     0       7.069  -2.717  14.591  0.00  0.00     0.298 C 
HETATM   14  O   UNK     0       8.142  -3.535  14.127  0.00  0.00    -0.348 OA
HETATM   15  C   UNK     0       8.725  -4.339  15.160  0.00  0.00     0.179 C 
HETATM   16  C   UNK     0       7.679  -5.310  15.717  0.00  0.00     0.180 C 
HETATM   17  C   UNK     0       6.470  -4.529  16.233  0.00  0.00     0.183 C 
HETATM   18  C   UNK     0       5.937  -3.573  15.166  0.00  0.00     0.205 C 
BRANCH  15  19
HETATM   19  C   UNK     0       9.923  -5.061  14.554  0.00  0.00     0.198 C 
BRANCH  19  20
HETATM   20  O   UNK     0       9.639  -5.346  13.196  0.00  0.00    -0.398 OA
HETATM   21  H   UNK     0       9.306  -6.258  13.151  0.00  0.00     0.209 HD
ENDBRANCH  19  20
ENDBRANCH  15  19
BRANCH  16  22
HETATM   22  O   UNK     0       7.266  -6.198  14.675  0.00  0.00    -0.390 OA
HETATM   23  H   UNK     0       7.973  -6.211  14.008  0.00  0.00     0.210 HD
ENDBRANCH  16  22
BRANCH  17  24
HETATM   24  O   UNK     0       5.432  -5.427  16.617  0.00  0.00    -0.390 OA
HETATM   25  H   UNK     0       5.272  -6.024  15.867  0.00  0.00     0.210 HD
ENDBRANCH  17  24
BRANCH  18  26
HETATM   26  O   UNK     0       4.967  -2.706  15.753  0.00  0.00    -0.388 OA
HETATM   27  H   UNK     0       4.694  -3.112  16.594  0.00  0.00     0.210 HD
ENDBRANCH  18  26
ENDBRANCH  12  13
ENDBRANCH   3  12
BRANCH   4  28
HETATM   28  C   UNK     0       8.856  -1.024  12.056  0.00  0.00     0.004 A 
HETATM   29  C   UNK     0       8.439  -1.349  10.764  0.00  0.00     0.053 A 
HETATM   30  C   UNK     0       9.238  -2.157   9.956  0.00  0.00     0.099 A 
HETATM   31  C   UNK     0      10.454  -2.642  10.440  0.00  0.00     0.098 A 
HETATM   32  C   UNK     0      10.870  -2.317  11.731  0.00  0.00     0.040 A 
HETATM   33  C   UNK     0      10.072  -1.508  12.538  0.00  0.00     0.017 A 
BRANCH  30  34
HETATM   34  O   UNK     0       8.821  -2.469   8.697  0.00  0.00    -0.358 OA
HETATM   35  H   UNK     0       7.851  -2.551   8.708  0.00  0.00     0.217 HD
ENDBRANCH  30  34
BRANCH  31  36
HETATM   36  O   UNK     0      11.244  -3.432   9.660  0.00  0.00    -0.358 OA
HETATM   37  H   UNK     0      10.691  -3.864   8.985  0.00  0.00     0.217 HD
ENDBRANCH  31  36
ENDBRANCH   4  28
BRANCH   8  38
HETATM   38  O   UNK     0       4.832   2.343  15.953  0.00  0.00    -0.360 OA
HETATM   39  H   UNK     0       4.045   2.341  15.386  0.00  0.00     0.217 HD
ENDBRANCH   8  38
BRANCH  11  40
HETATM   40  O   UNK     0       8.012   5.588  14.575  0.00  0.00    -0.361 OA
HETATM   41  H   UNK     0       7.608   6.089  13.846  0.00  0.00     0.217 HD
ENDBRANCH  11  40
TORSDOF 12
ENDMDL
